Clear

New Circuit.Full_Network 

!Redirect LineCodes.dss

New Linecode.2P_OH_Code31 units=km normamps=230.0 Xmatrix=(0.0 0.0 0.0 | 0.0 0.784727639137 0.268761265379 | 0.0 0.268761265379 0.784727639137 ) nphases=2 Rmatrix=(0.0 0.0 0.0 | 0.0 0.701190810431 0.109022592403 | 0.0 0.109022592403 0.701190810431 )

New Linecode.2P_OH_Code32 units=km normamps=230.0 Xmatrix=(0.784727639137 0.268761265379 0.0 | 0.268761265379 0.784727639137 0.0 | 0.0 0.0 0.0 ) nphases=2 Rmatrix=(0.701190810431 0.109022592403 0.0 | 0.109022592403 0.701190810431 0.0 | 0.0 0.0 0.0 )

New Linecode.2P_OH_Code12 units=km Xmatrix=(1e-05 0.0 | 0.0 1e-05 ) nphases=2 Rmatrix=(1e-05 0.0 | 0.0 1e-05 )

New Linecode.2P_OH_Code16 units=km normamps=230.0 Xmatrix=(0.784727639137 0.0 0.268761265379 | 0.0 0.0 0.0 | 0.268761265379 0.0 0.784727639137 ) nphases=2 Rmatrix=(0.701190810431 0.0 0.109022592403 | 0.0 0.0 0.0 | 0.109022592403 0.0 0.701190810431 )

New Linecode.2P_OH_Code15 units=km normamps=149.0 Xmatrix=(0.0 0.0 0.0 | 0.0 0.865910754915 0.305021910986 | 0.0 0.305021910986 0.865910754915 ) nphases=2 Rmatrix=(0.0 0.0 0.0 | 0.0 1.05307038825 0.121011283272 | 0.0 0.121011283272 1.05307038825 )

New Linecode.2P_OH_Code14 units=km normamps=180.0 Xmatrix=(0.859855043171 0.248612709431 0.0 | 0.248612709431 0.859855043171 0.0 | 0.0 0.0 0.0 ) nphases=2 Rmatrix=(0.227517554551 0.0498049518687 0.0 | 0.0498049518687 0.227517554551 0.0 | 0.0 0.0 0.0 )

New Linecode.3P_UG_Code21 units=km Xmatrix=(0.839507292951 0.230036172413 0.241358160719 | 0.230036172413 0.839507292951 0.241358160719 | 0.241358160719 0.241358160719 0.860865132291 ) nphases=3 Rmatrix=(0.631721705613 0.0805392332956 0.0757731518171 | 0.0805392332956 0.631721705613 0.0757731518171 | 0.0757731518171 0.0757731518171 0.623028794202 )

New Linecode.1P_OH_Code40 units=km normamps=180.0 Xmatrix=(0.0 0.0 0.0 | 0.0 0.0 0.0 | 0.0 0.0 0.859855043171 ) nphases=1 Rmatrix=(0.0 0.0 0.0 | 0.0 0.0 0.0 | 0.0 0.0 0.227517554551 )

New Linecode.3P_UG_Code7 units=km Xmatrix=(0.733668929666 0.202121634518 0.21792296937 | 0.202121634518 0.733668929666 0.21792296937 | 0.21792296937 0.21792296937 0.763319794474 ) nphases=3 Rmatrix=(0.109857352225 0.0337416774762 0.034108059547 | 0.0337416774762 0.109857352225 0.034108059547 | 0.034108059547 0.034108059547 0.110898155538 )

New Linecode.3P_UG_Code24 units=km Xmatrix=(0.87788743338 0.250878458043 0.259369156551 | 0.250878458043 0.87788743338 0.259369156551 | 0.259369156551 0.259369156551 0.893953461301 ) nphases=3 Rmatrix=(0.970141906358 0.0925150531141 0.0867416586663 | 0.0925150531141 0.970141906358 0.0867416586663 | 0.0867416586663 0.0867416586663 0.959495002329 )

New Linecode.3P_OH_Code22 units=km normamps=530.0 Xmatrix=(0.690456287545 0.223355131598 0.242154856475 | 0.223355131598 0.690456287545 0.242154856475 | 0.242154856475 0.242154856475 0.726253949513 ) nphases=3 Rmatrix=(0.245623720633 0.0573477814286 0.0548550377304 | 0.0573477814286 0.245623720633 0.0548550377304 | 0.0548550377304 0.0548550377304 0.2411434586 )

New Linecode.2P_UG_Code27 units=km Xmatrix=(0.879013593288 0.201829365391 0.0 | 0.201829365391 0.753915677958 0.0 | 0.0 0.0 0.0 ) nphases=2 Rmatrix=(0.951553673076 0.123897356416 0.0 | 0.123897356416 1.04327668109 0.0 | 0.0 0.0 0.0 )

New Linecode.1P_UG_Code39 units=km Xmatrix=(0.0 0.0 0.0 | 0.0 0.879013593288 0.0 | 0.0 0.0 0.0 ) nphases=1 Rmatrix=(0.0 0.0 0.0 | 0.0 0.951553673076 0.0 | 0.0 0.0 0.0 )

New Linecode.1P_UG_Code38 units=km Xmatrix=(0.839507292951 0.0 0.0 | 0.0 0.0 0.0 | 0.0 0.0 0.0 ) nphases=1 Rmatrix=(0.631721705613 0.0 0.0 | 0.0 0.0 0.0 | 0.0 0.0 0.0 )

New Linecode.1P_UG_Code28 units=km Xmatrix=(0.879013593288 0.0 0.0 | 0.0 0.0 0.0 | 0.0 0.0 0.0 ) nphases=1 Rmatrix=(0.951553673076 0.0 0.0 | 0.0 0.0 0.0 | 0.0 0.0 0.0 )

New Linecode.1P_UG_Code19 units=km Xmatrix=(0.87788743338 0.0 0.0 | 0.0 0.0 0.0 | 0.0 0.0 0.0 ) nphases=1 Rmatrix=(0.970141906358 0.0 0.0 | 0.0 0.0 0.0 | 0.0 0.0 0.0 )

New Linecode.2P_UG_Code35 units=km Xmatrix=(0.0 0.0 0.0 | 0.0 0.879013593288 0.201829365391 | 0.0 0.201829365391 0.753915677958 ) nphases=2 Rmatrix=(0.0 0.0 0.0 | 0.0 0.951553673076 0.123897356416 | 0.0 0.123897356416 1.04327668109 )

New Linecode.2P_UG_Code8 units=km Xmatrix=(0.0 0.0 0.0 | 0.0 0.839507292951 0.166937608713 | 0.0 0.166937608713 0.6733634693 ) nphases=2 Rmatrix=(0.0 0.0 0.0 | 0.0 0.631721705613 0.107101078056 | 0.0 0.107101078056 0.710912073489 )

New Linecode.2P_UG_Code9 units=km Xmatrix=(0.87788743338 0.0 0.203558953182 | 0.0 0.0 0.0 | 0.203558953182 0.0 0.754817577262 ) nphases=2 Rmatrix=(0.970141906358 0.0 0.124690752954 | 0.0 0.0 0.0 | 0.124690752954 0.0 1.06244322105 )

New Linecode.2P_OH_Code20 units=km normamps=149.0 Xmatrix=(0.865910754915 0.0 0.305021910986 | 0.0 0.0 0.0 | 0.305021910986 0.0 0.865910754915 ) nphases=2 Rmatrix=(1.05307038825 0.0 0.121011283272 | 0.0 0.0 0.0 | 0.121011283272 0.0 1.05307038825 )

New Linecode.1P_OH_Code33 units=km Xmatrix=(1e-05 ) nphases=1 Rmatrix=(1e-05 )

New Linecode.1P_UG_Code36 units=km Xmatrix=(0.0 0.0 0.0 | 0.0 0.839507292951 0.0 | 0.0 0.0 0.0 ) nphases=1 Rmatrix=(0.0 0.0 0.0 | 0.0 0.631721705613 0.0 | 0.0 0.0 0.0 )

New Linecode.3P_UG_Code18 units=km Xmatrix=(0.721329586769 0.200697083319 0.216738809689 | 0.200697083319 0.721329586769 0.216738809689 | 0.216738809689 0.216738809689 0.751424361272 ) nphases=3 Rmatrix=(0.0879122385325 0.030825482471 0.0315187325578 | 0.030825482471 0.0879122385325 0.0315187325578 | 0.0315187325578 0.0315187325578 0.089571943931 )

New Linecode.3P_UG_Code37 units=km Xmatrix=(0.722222433542 0.201589930091 0.217666692699 | 0.201589930091 0.722222433542 0.217666692699 | 0.217666692699 0.217666692699 0.752364706888 ) nphases=3 Rmatrix=(0.0381375530415 0.0243430782879 0.025853638018 | 0.0243430782879 0.0381375530415 0.025853638018 | 0.025853638018 0.025853638018 0.0413321288212 )

New Linecode.3P_OH_Code1 units=km normamps=149.0 Xmatrix=(0.865910754915 0.305021910986 0.314957569132 | 0.305021910986 0.865910754915 0.314957569132 | 0.314957569132 0.314957569132 0.884916938834 ) nphases=3 Rmatrix=(1.05307038825 0.121011283272 0.113436346142 | 0.121011283272 1.05307038825 0.113436346142 | 0.113436346142 0.113436346142 1.03879880463 )

New Linecode.3P_OH_Code30 units=km normamps=858.0 Xmatrix=(0.664667567949 0.21607683598 0.235838630336 | 0.21607683598 0.664667567949 0.235838630336 | 0.235838630336 0.235838630336 0.702272270985 ) nphases=3 Rmatrix=(0.140596283245 0.0393125271707 0.0384802712795 | 0.0393125271707 0.140596283245 0.0384802712795 | 0.0384802712795 0.0384802712795 0.139288181893 )

New Linecode.3P_OH_Code13 units=km Xmatrix=(1e-05 0.0 0.0 | 0.0 1e-05 0.0 | 0.0 0.0 1e-05 ) nphases=3 Rmatrix=(1e-05 0.0 0.0 | 0.0 1e-05 0.0 | 0.0 0.0 1e-05 )

New Linecode.1P_OH_Code34 units=km normamps=149.0 Xmatrix=(0.0 0.0 0.0 | 0.0 0.865910754915 0.0 | 0.0 0.0 0.0 ) nphases=1 Rmatrix=(0.0 0.0 0.0 | 0.0 1.05307038825 0.0 | 0.0 0.0 0.0 )

New Linecode.2P_OH_Code6 units=km Xmatrix=(-0.200680358561 -0.117163997415 | -0.117163997415 -0.200680358561 ) nphases=2 Rmatrix=(0.0080297706168 0.00460515099956 | 0.00460515099956 0.0080297706168 )

New Linecode.2P_OH_Code5 units=km normamps=180.0 Xmatrix=(0.859855043171 0.0 0.248612709431 | 0.0 0.0 0.0 | 0.248612709431 0.0 0.859855043171 ) nphases=2 Rmatrix=(0.227517554551 0.0 0.0498049518687 | 0.0 0.0 0.0 | 0.0498049518687 0.0 0.227517554551 )

New Linecode.2P_OH_Code3 units=km normamps=149.0 Xmatrix=(0.865910754915 0.305021910986 0.0 | 0.305021910986 0.865910754915 0.0 | 0.0 0.0 0.0 ) nphases=2 Rmatrix=(1.05307038825 0.121011283272 0.0 | 0.121011283272 1.05307038825 0.0 | 0.0 0.0 0.0 )

New Linecode.1P_UG_Code29 units=km Xmatrix=(0.0 0.0 0.0 | 0.0 0.0 0.0 | 0.0 0.0 0.879013593288 ) nphases=1 Rmatrix=(0.0 0.0 0.0 | 0.0 0.0 0.0 | 0.0 0.0 0.951553673076 )

New Linecode.2P_OH_Code0 units=km normamps=180.0 Xmatrix=(0.0 0.0 0.0 | 0.0 0.859855043171 0.248612709431 | 0.0 0.248612709431 0.859855043171 ) nphases=2 Rmatrix=(0.0 0.0 0.0 | 0.0 0.227517554551 0.0498049518687 | 0.0 0.0498049518687 0.227517554551 )

New Linecode.3P_OH_Code2 units=km normamps=300.0 Xmatrix=(0.823317209358 0.254900153488 0.27025302199 | 0.254900153488 0.823317209358 0.27025302199 | 0.27025302199 0.27025302199 0.852587444982 ) nphases=3 Rmatrix=(0.48002508526 0.0835892792776 0.0789722281781 | 0.0835892792776 0.48002508526 0.0789722281781 | 0.0789722281781 0.0789722281781 0.471455741078 )

New Linecode.1P_UG_Code25 units=km Xmatrix=(0.0 0.0 0.0 | 0.0 0.87788743338 0.0 | 0.0 0.0 0.0 ) nphases=1 Rmatrix=(0.0 0.0 0.0 | 0.0 0.970141906358 0.0 | 0.0 0.0 0.0 )

New Linecode.1P_UG_Code26 units=km Xmatrix=(0.0 0.0 0.0 | 0.0 0.0 0.0 | 0.0 0.0 0.87788743338 ) nphases=1 Rmatrix=(0.0 0.0 0.0 | 0.0 0.0 0.0 | 0.0 0.0 0.970141906358 )

New Linecode.2P_UG_Code17 units=km Xmatrix=(0.879013593288 0.0 0.201829365391 | 0.0 0.0 0.0 | 0.201829365391 0.0 0.753915677958 ) nphases=2 Rmatrix=(0.951553673076 0.0 0.123897356416 | 0.0 0.0 0.0 | 0.123897356416 0.0 1.04327668109 )

New Linecode.2P_UG_Code10 units=km Xmatrix=(0.87788743338 0.203558953182 0.0 | 0.203558953182 0.754817577262 0.0 | 0.0 0.0 0.0 ) nphases=2 Rmatrix=(0.970141906358 0.124690752954 0.0 | 0.124690752954 1.06244322105 0.0 | 0.0 0.0 0.0 )

New Linecode.2P_UG_Code11 units=km Xmatrix=(0.0 0.0 0.0 | 0.0 0.87788743338 0.203558953182 | 0.0 0.203558953182 0.754817577262 ) nphases=2 Rmatrix=(0.0 0.0 0.0 | 0.0 0.970141906358 0.124690752954 | 0.0 0.124690752954 1.06244322105 )

New Linecode.3P_OH_Code4 units=km normamps=180.0 Xmatrix=(0.859855043171 0.248612709431 0.265050101539 | 0.248612709431 0.859855043171 0.265050101539 | 0.265050101539 0.265050101539 0.891143656259 ) nphases=3 Rmatrix=(0.227517554551 0.0498049518687 0.0484006633004 | 0.0498049518687 0.227517554551 0.0484006633004 | 0.0484006633004 0.0484006633004 0.225074988052 )

New Linecode.1P_UG_Code23 units=km Xmatrix=(0.0 0.0 0.0 | 0.0 0.0 0.0 | 0.0 0.0 0.839507292951 ) nphases=1 Rmatrix=(0.0 0.0 0.0 | 0.0 0.0 0.0 | 0.0 0.0 0.631721705613 )

!Redirect Lines.dss

New Line.R3-12-47-3_ol_537 Units=km Length=0.06632448 bus1=R3-12-47-3_node_602.2.3 bus2=R3-12-47-3_node_1063.2.3 switch=n enabled=y phases=2 Linecode=2P_OH_Code0

New Line.R3-12-47-3_ol_536 Units=km Length=0.04459224 bus1=R3-12-47-3_node_602.3.1.2 bus2=R3-12-47-3_node_603.3.1.2 switch=n enabled=y phases=3 Linecode=3P_OH_Code1

New Line.R3-12-47-3_ol_535 Units=km Length=0.0865632 bus1=R3-12-47-3_node_583.3.1.2 bus2=R3-12-47-3_node_599.3.1.2 switch=n enabled=y phases=3 Linecode=3P_OH_Code2

New Line.R3-12-47-3_ol_534 Units=km Length=0.0751332 bus1=R3-12-47-3_node_583.2.1 bus2=R3-12-47-3_node_585.2.1 switch=n enabled=y phases=2 Linecode=2P_OH_Code3

New Line.R3-12-47-3_ol_533 Units=km Length=0.0969264 bus1=R3-12-47-3_node_597.2.1.3 bus2=R3-12-47-3_node_602.2.1.3 switch=n enabled=y phases=3 Linecode=3P_OH_Code4

New Line.R3-12-47-3_ol_532 Units=km Length=0.12073128 bus1=R3-12-47-3_node_596.1.2.3 bus2=R3-12-47-3_node_597.1.2.3 switch=n enabled=y phases=3 Linecode=3P_OH_Code1

New Line.R3-12-47-3_ol_531 Units=km Length=0.08927592 bus1=R3-12-47-3_node_595.2.1.3 bus2=R3-12-47-3_node_596.2.1.3 switch=n enabled=y phases=3 Linecode=3P_OH_Code1

New Line.R3-12-47-3_ol_530 Units=km Length=0.05611368 bus1=R3-12-47-3_node_594.1.2.3 bus2=R3-12-47-3_node_595.1.2.3 switch=n enabled=y phases=3 Linecode=3P_OH_Code1

New Line.R3-12-47-3_ol_539 Units=km Length=0.03218688 bus1=R3-12-47-3_node_643.3.1 bus2=R3-12-47-3_node_644.3.1 switch=n enabled=y phases=2 Linecode=2P_OH_Code5

New Line.R3-12-47-3_ol_538 Units=km Length=0.05126736 bus1=R3-12-47-3_node_603.2.1.3 bus2=R3-12-47-3_node_604.2.1.3 switch=n enabled=y phases=3 Linecode=3P_OH_Code4

New Line.R3-12-47-3_tl_234 Units=km Length=0.009144 bus1=R3-12-47-3_tn_234.1.2 bus2=R3-12-47-3_tm_234.1.2 switch=n enabled=y phases=2 Linecode=2P_OH_Code6

New Line.R3-12-47-3_ul_9 Units=km Length=0.062484 bus1=R3-12-47-3_node_85.3.1.2 bus2=R3-12-47-3_node_97.3.1.2 switch=n enabled=y phases=3 Linecode=3P_UG_Code7

New Line.R3-12-47-3_ul_8 Units=km Length=0.0874776 bus1=R3-12-47-3_node_88.2.3 bus2=R3-12-47-3_node_89.2.3 switch=n enabled=y phases=2 Linecode=2P_UG_Code8

New Line.R3-12-47-3_ul_7 Units=km Length=0.0856488 bus1=R3-12-47-3_node_74.1.3.2 bus2=R3-12-47-3_node_85.1.3.2 switch=n enabled=y phases=3 Linecode=3P_UG_Code7

New Line.R3-12-47-3_ul_6 Units=km Length=0.1773936 bus1=R3-12-47-3_node_63.2.1.3 bus2=R3-12-47-3_node_74.2.1.3 switch=n enabled=y phases=3 Linecode=3P_UG_Code7

New Line.R3-12-47-3_ul_5 Units=km Length=0.0917448 bus1=R3-12-47-3_node_52.1.2.3 bus2=R3-12-47-3_node_63.1.2.3 switch=n enabled=y phases=3 Linecode=3P_UG_Code7

New Line.R3-12-47-3_ul_3 Units=km Length=0.0667512 bus1=R3-12-47-3_node_408.1.3 bus2=R3-12-47-3_node_410.1.3 switch=n enabled=y phases=2 Linecode=2P_UG_Code9

New Line.R3-12-47-3_ul_2 Units=km Length=0.0359664 bus1=R3-12-47-3_node_408.1.3 bus2=R3-12-47-3_node_409.1.3 switch=n enabled=y phases=2 Linecode=2P_UG_Code9

New Line.R3-12-47-3_ul_1 Units=km Length=0.0316992 bus1=R3-12-47-3_node_407.1.3 bus2=R3-12-47-3_node_408.1.3 switch=n enabled=y phases=2 Linecode=2P_UG_Code9

New Line.R3-12-47-3_ul_281 Units=km Length=0.0344424 bus1=R3-12-47-3_node_1589.1.2 bus2=R3-12-47-3_node_1590.1.2 switch=n enabled=y phases=2 Linecode=2P_UG_Code10

New Line.R3-12-47-3_ul_280 Units=km Length=0.0765048 bus1=R3-12-47-3_node_1582.1.2 bus2=R3-12-47-3_node_1583.1.2 switch=n enabled=y phases=2 Linecode=2P_UG_Code10

New Line.R3-12-47-3_ul_287 Units=km Length=0.187452 bus1=R3-12-47-3_node_1659.2.3 bus2=R3-12-47-3_node_1660.2.3 switch=n enabled=y phases=2 Linecode=2P_UG_Code11

New Line.R3-12-47-3_ul_286 Units=km Length=0.067056 bus1=R3-12-47-3_node_1657.2.3 bus2=R3-12-47-3_node_1659.2.3 switch=n enabled=y phases=2 Linecode=2P_UG_Code11

New Line.R3-12-47-3_ul_285 Units=km Length=0.04572 bus1=R3-12-47-3_node_1651.1.2 bus2=R3-12-47-3_node_1652.1.2 switch=n enabled=y phases=2 Linecode=2P_UG_Code10

New Line.R3-12-47-3_ul_284 Units=km Length=0.0664464 bus1=R3-12-47-3_node_1614.1.2 bus2=R3-12-47-3_node_1615.1.2 switch=n enabled=y phases=2 Linecode=2P_UG_Code10

New Line.R3-12-47-3_tl_1578 Units=km Length=0.009144 bus1=R3-12-47-3_tn_1578.1.2 bus2=R3-12-47-3_tm_1578.1.2 switch=n enabled=y phases=2 Linecode=2P_OH_Code6

New Line.R3-12-47-3_tl_1579 Units=km Length=0.009144 bus1=R3-12-47-3_tn_1579.1.2 bus2=R3-12-47-3_tm_1579.1.2 switch=n enabled=y phases=2 Linecode=2P_OH_Code6

New Line.R3-12-47-3_tl_1570 Units=km Length=0.009144 bus1=R3-12-47-3_tn_1570.2.1 bus2=R3-12-47-3_tm_1570.2.1 switch=n enabled=y phases=2 Linecode=2P_OH_Code6

New Line.R3-12-47-3_tl_1571 Units=km Length=0.009144 bus1=R3-12-47-3_tn_1571.2.1 bus2=R3-12-47-3_tm_1571.2.1 switch=n enabled=y phases=2 Linecode=2P_OH_Code6

New Line.R3-12-47-3_tl_1572 Units=km Length=0.009144 bus1=R3-12-47-3_tn_1572.1.2 bus2=R3-12-47-3_tm_1572.1.2 switch=n enabled=y phases=2 Linecode=2P_OH_Code6

New Line.R3-12-47-3_tl_1573 Units=km Length=0.009144 bus1=R3-12-47-3_tn_1573.1.2 bus2=R3-12-47-3_tm_1573.1.2 switch=n enabled=y phases=2 Linecode=2P_OH_Code6

New Line.R3-12-47-3_tl_1574 Units=km Length=0.009144 bus1=R3-12-47-3_tn_1574.1.2 bus2=R3-12-47-3_tm_1574.1.2 switch=n enabled=y phases=2 Linecode=2P_OH_Code6

New Line.R3-12-47-3_tl_1575 Units=km Length=0.009144 bus1=R3-12-47-3_tn_1575.1.2 bus2=R3-12-47-3_tm_1575.1.2 switch=n enabled=y phases=2 Linecode=2P_OH_Code6

New Line.R3-12-47-3_tl_1576 Units=km Length=0.009144 bus1=R3-12-47-3_tn_1576.1.2 bus2=R3-12-47-3_tm_1576.1.2 switch=n enabled=y phases=2 Linecode=2P_OH_Code6

New Line.R3-12-47-3_tl_1577 Units=km Length=0.009144 bus1=R3-12-47-3_tn_1577.1.2 bus2=R3-12-47-3_tm_1577.1.2 switch=n enabled=y phases=2 Linecode=2P_OH_Code6

New Line.R3-12-47-3_tl_569 Units=km Length=0.009144 bus1=R3-12-47-3_tn_569.1.2 bus2=R3-12-47-3_tm_569.1.2 switch=n enabled=y phases=2 Linecode=2P_OH_Code6

New Line.R3-12-47-3_tl_568 Units=km Length=0.009144 bus1=R3-12-47-3_tn_568.2.1 bus2=R3-12-47-3_tm_568.2.1 switch=n enabled=y phases=2 Linecode=2P_OH_Code6

New Line.R3-12-47-3_tl_565 Units=km Length=0.009144 bus1=R3-12-47-3_tn_565.1.2 bus2=R3-12-47-3_tm_565.1.2 switch=n enabled=y phases=2 Linecode=2P_OH_Code6

New Line.R3-12-47-3_tl_564 Units=km Length=0.009144 bus1=R3-12-47-3_tn_564.2.1 bus2=R3-12-47-3_tm_564.2.1 switch=n enabled=y phases=2 Linecode=2P_OH_Code6

New Line.R3-12-47-3_tl_567 Units=km Length=0.009144 bus1=R3-12-47-3_tn_567.1.2 bus2=R3-12-47-3_tm_567.1.2 switch=n enabled=y phases=2 Linecode=2P_OH_Code6

New Line.R3-12-47-3_tl_566 Units=km Length=0.009144 bus1=R3-12-47-3_tn_566.1.2 bus2=R3-12-47-3_tm_566.1.2 switch=n enabled=y phases=2 Linecode=2P_OH_Code6

New Line.R3-12-47-3_tl_561 Units=km Length=0.009144 bus1=R3-12-47-3_tn_561.1.2 bus2=R3-12-47-3_tm_561.1.2 switch=n enabled=y phases=2 Linecode=2P_OH_Code6

New Line.R3-12-47-3_tl_560 Units=km Length=0.009144 bus1=R3-12-47-3_tn_560.1.2 bus2=R3-12-47-3_tm_560.1.2 switch=n enabled=y phases=2 Linecode=2P_OH_Code6

New Line.R3-12-47-3_tl_563 Units=km Length=0.009144 bus1=R3-12-47-3_tn_563.1.2 bus2=R3-12-47-3_tm_563.1.2 switch=n enabled=y phases=2 Linecode=2P_OH_Code6

New Line.R3-12-47-3_tl_562 Units=km Length=0.009144 bus1=R3-12-47-3_tn_562.1.2 bus2=R3-12-47-3_tm_562.1.2 switch=n enabled=y phases=2 Linecode=2P_OH_Code6

New Line.R3-12-47-3_ol_1429 Units=km Length=0.0957072 bus1=R3-12-47-3_node_1918.3.1.2 bus2=R3-12-47-3_node_1919.3.1.2 switch=n enabled=y phases=3 Linecode=3P_OH_Code4

New Line.R3-12-47-3_ol_1428 Units=km Length=0.07190232 bus1=R3-12-47-3_node_1917.3.1.2 bus2=R3-12-47-3_node_1918.3.1.2 switch=n enabled=y phases=3 Linecode=3P_OH_Code4

New Line.R3-12-47-3_ol_1399 Units=km Length=0.09515856 bus1=R3-12-47-3_node_1887.2.1.3 bus2=R3-12-47-3_node_1888.2.1.3 switch=n enabled=y phases=3 Linecode=3P_OH_Code1

New Line.R3-12-47-3_ol_1398 Units=km Length=0.09406128 bus1=R3-12-47-3_node_1886.2.1.3 bus2=R3-12-47-3_node_1887.2.1.3 switch=n enabled=y phases=3 Linecode=3P_OH_Code1

New Line.R3-12-47-3_tl_622 Units=km Length=0.009144 bus1=R3-12-47-3_tn_622.1.2 bus2=R3-12-47-3_tm_622.1.2 switch=n enabled=y phases=2 Linecode=2P_OH_Code6

New Line.R3-12-47-3_tl_623 Units=km Length=0.009144 bus1=R3-12-47-3_tn_623.1.2 bus2=R3-12-47-3_tm_623.1.2 switch=n enabled=y phases=2 Linecode=2P_OH_Code6

New Line.R3-12-47-3_tl_620 Units=km Length=0.009144 bus1=R3-12-47-3_tn_620.1.2 bus2=R3-12-47-3_tm_620.1.2 switch=n enabled=y phases=2 Linecode=2P_OH_Code6

New Line.R3-12-47-3_tl_621 Units=km Length=0.009144 bus1=R3-12-47-3_tn_621.1.2 bus2=R3-12-47-3_tm_621.1.2 switch=n enabled=y phases=2 Linecode=2P_OH_Code6

New Line.R3-12-47-3_ol_1393 Units=km Length=0.16788384 bus1=R3-12-47-3_node_1869.3.1.2 bus2=R3-12-47-3_node_1881.3.1.2 switch=n enabled=y phases=3 Linecode=3P_OH_Code4

New Line.R3-12-47-3_ol_1392 Units=km Length=0.0734568 bus1=R3-12-47-3_node_1880.3.2 bus2=R3-12-47-3_node_1882.3.2 switch=n enabled=y phases=2 Linecode=2P_OH_Code0

New Line.R3-12-47-3_ol_1391 Units=km Length=0.05513832 bus1=R3-12-47-3_node_1879.3.2 bus2=R3-12-47-3_node_1880.3.2 switch=n enabled=y phases=2 Linecode=2P_OH_Code0

New Line.R3-12-47-3_ol_1390 Units=km Length=0.04611624 bus1=R3-12-47-3_node_1877.2.3 bus2=R3-12-47-3_node_1878.2.3 switch=n enabled=y phases=2 Linecode=2P_OH_Code0

New Line.R3-12-47-3_ol_1397 Units=km Length=0.13591032 bus1=R3-12-47-3_node_1885.1.3.2 bus2=R3-12-47-3_node_1886.1.3.2 switch=n enabled=y phases=3 Linecode=3P_OH_Code1

New Line.R3-12-47-3_ol_1396 Units=km Length=0.07671816 bus1=R3-12-47-3_node_1884.3.1.2 bus2=R3-12-47-3_node_1912.3.1.2 switch=n enabled=y phases=3 Linecode=3P_OH_Code1

New Line.R3-12-47-3_ol_1395 Units=km Length=0.07388352 bus1=R3-12-47-3_node_1884.2.1.3 bus2=R3-12-47-3_node_1885.2.1.3 switch=n enabled=y phases=3 Linecode=3P_OH_Code1

New Line.R3-12-47-3_ol_1394 Units=km Length=0.02959608 bus1=R3-12-47-3_node_1883.3.1.2 bus2=R3-12-47-3_node_1884.3.1.2 switch=n enabled=y phases=3 Linecode=3P_OH_Code1

New Line.R3-12-47-3_fuse_95 Units=km Length=0.001 bus1=R3-12-47-3_node_1317.1.3 bus2=R3-12-47-3_node_1318.1.3 switch=n enabled=y phases=2 Linecode=2P_OH_Code12

New Fuse.Fuse_R3-12-47-3_fuse_95 monitoredobj=Line.R3-12-47-3_fuse_95 enabled=y

New Line.R3-12-47-3_fuse_94 Units=km Length=0.001 bus1=R3-12-47-3_node_1306.1.2 bus2=R3-12-47-3_node_1307.1.2 switch=n enabled=y phases=2 Linecode=2P_OH_Code12

New Fuse.Fuse_R3-12-47-3_fuse_94 monitoredobj=Line.R3-12-47-3_fuse_94 enabled=y

New Line.R3-12-47-3_fuse_97 Units=km Length=0.001 bus1=R3-12-47-3_node_1310.1.2.3 bus2=R3-12-47-3_node_1331.1.2.3 switch=n enabled=y phases=3 Linecode=3P_OH_Code13

New Fuse.Fuse_R3-12-47-3_fuse_97 monitoredobj=Line.R3-12-47-3_fuse_97 enabled=y

New Line.R3-12-47-3_fuse_96 Units=km Length=0.001 bus1=R3-12-47-3_node_1324.1.3 bus2=R3-12-47-3_node_1325.1.3 switch=n enabled=y phases=2 Linecode=2P_OH_Code12

New Fuse.Fuse_R3-12-47-3_fuse_96 monitoredobj=Line.R3-12-47-3_fuse_96 enabled=y

New Line.R3-12-47-3_fuse_91 Units=km Length=0.001 bus1=R3-12-47-3_node_1282.2.3 bus2=R3-12-47-3_node_1285.2.3 switch=n enabled=y phases=2 Linecode=2P_OH_Code12

New Fuse.Fuse_R3-12-47-3_fuse_91 monitoredobj=Line.R3-12-47-3_fuse_91 enabled=y

New Line.R3-12-47-3_fuse_90 Units=km Length=0.001 bus1=R3-12-47-3_node_1266.2.3 bus2=R3-12-47-3_node_1267.2.3 switch=n enabled=y phases=2 Linecode=2P_OH_Code12

New Fuse.Fuse_R3-12-47-3_fuse_90 monitoredobj=Line.R3-12-47-3_fuse_90 enabled=y

New Line.R3-12-47-3_fuse_93 Units=km Length=0.001 bus1=R3-12-47-3_node_1304.1.2 bus2=R3-12-47-3_node_1305.1.2 switch=n enabled=y phases=2 Linecode=2P_OH_Code12

New Fuse.Fuse_R3-12-47-3_fuse_93 monitoredobj=Line.R3-12-47-3_fuse_93 enabled=y

New Line.R3-12-47-3_fuse_92 Units=km Length=0.001 bus1=R3-12-47-3_node_1289.2.3 bus2=R3-12-47-3_node_1290.2.3 switch=n enabled=y phases=2 Linecode=2P_OH_Code12

New Fuse.Fuse_R3-12-47-3_fuse_92 monitoredobj=Line.R3-12-47-3_fuse_92 enabled=y

New Line.R3-12-47-3_fuse_99 Units=km Length=0.001 bus1=R3-12-47-3_node_1388.1.3 bus2=R3-12-47-3_node_1389.1.3 switch=n enabled=y phases=2 Linecode=2P_OH_Code12

New Fuse.Fuse_R3-12-47-3_fuse_99 monitoredobj=Line.R3-12-47-3_fuse_99 enabled=y

New Line.R3-12-47-3_fuse_98 Units=km Length=0.001 bus1=R3-12-47-3_node_1356.1.2 bus2=R3-12-47-3_node_1357.1.2 switch=n enabled=y phases=2 Linecode=2P_OH_Code12

New Fuse.Fuse_R3-12-47-3_fuse_98 monitoredobj=Line.R3-12-47-3_fuse_98 enabled=y

New Line.R3-12-47-3_tl_716 Units=km Length=0.009144 bus1=R3-12-47-3_tn_716.1.2 bus2=R3-12-47-3_tm_716.1.2 switch=n enabled=y phases=2 Linecode=2P_OH_Code6

New Line.R3-12-47-3_tl_198 Units=km Length=0.009144 bus1=R3-12-47-3_tn_198.1.2 bus2=R3-12-47-3_tm_198.1.2 switch=n enabled=y phases=2 Linecode=2P_OH_Code6

New Line.R3-12-47-3_tl_199 Units=km Length=0.009144 bus1=R3-12-47-3_tn_199.1.2 bus2=R3-12-47-3_tm_199.1.2 switch=n enabled=y phases=2 Linecode=2P_OH_Code6

New Line.R3-12-47-3_tl_717 Units=km Length=0.009144 bus1=R3-12-47-3_tn_717.1.2 bus2=R3-12-47-3_tm_717.1.2 switch=n enabled=y phases=2 Linecode=2P_OH_Code6

New Line.R3-12-47-3_ol_1049 Units=km Length=0.0463296 bus1=R3-12-47-3_node_1371.2.1 bus2=R3-12-47-3_node_1373.2.1 switch=n enabled=y phases=2 Linecode=2P_OH_Code14

New Line.R3-12-47-3_ol_1048 Units=km Length=0.0554736 bus1=R3-12-47-3_node_1370.2.3 bus2=R3-12-47-3_node_1375.2.3 switch=n enabled=y phases=2 Linecode=2P_OH_Code15

New Line.R3-12-47-3_tl_710 Units=km Length=0.009144 bus1=R3-12-47-3_tn_710.2.1 bus2=R3-12-47-3_tm_710.2.1 switch=n enabled=y phases=2 Linecode=2P_OH_Code6

New Line.R3-12-47-3_tl_711 Units=km Length=0.009144 bus1=R3-12-47-3_tn_711.1.2 bus2=R3-12-47-3_tm_711.1.2 switch=n enabled=y phases=2 Linecode=2P_OH_Code6

New Line.R3-12-47-3_ol_1043 Units=km Length=0.09396984 bus1=R3-12-47-3_node_1364.2.1.3 bus2=R3-12-47-3_node_1365.2.1.3 switch=n enabled=y phases=3 Linecode=3P_OH_Code1

New Line.R3-12-47-3_ol_1042 Units=km Length=0.13164312 bus1=R3-12-47-3_node_1363.2.1.3 bus2=R3-12-47-3_node_1364.2.1.3 switch=n enabled=y phases=3 Linecode=3P_OH_Code1

New Line.R3-12-47-3_tl_718 Units=km Length=0.009144 bus1=R3-12-47-3_tn_718.2.1 bus2=R3-12-47-3_tm_718.2.1 switch=n enabled=y phases=2 Linecode=2P_OH_Code6

New Line.R3-12-47-3_tl_719 Units=km Length=0.009144 bus1=R3-12-47-3_tn_719.1.2 bus2=R3-12-47-3_tm_719.1.2 switch=n enabled=y phases=2 Linecode=2P_OH_Code6

New Line.R3-12-47-3_tl_363 Units=km Length=0.009144 bus1=R3-12-47-3_tn_363.1.2 bus2=R3-12-47-3_tm_363.1.2 switch=n enabled=y phases=2 Linecode=2P_OH_Code6

New Line.R3-12-47-3_tl_362 Units=km Length=0.009144 bus1=R3-12-47-3_tn_362.1.2 bus2=R3-12-47-3_tm_362.1.2 switch=n enabled=y phases=2 Linecode=2P_OH_Code6

New Line.R3-12-47-3_tl_367 Units=km Length=0.009144 bus1=R3-12-47-3_tn_367.2.1 bus2=R3-12-47-3_tm_367.2.1 switch=n enabled=y phases=2 Linecode=2P_OH_Code6

New Line.R3-12-47-3_tl_366 Units=km Length=0.009144 bus1=R3-12-47-3_tn_366.1.2 bus2=R3-12-47-3_tm_366.1.2 switch=n enabled=y phases=2 Linecode=2P_OH_Code6

New Line.R3-12-47-3_tl_365 Units=km Length=0.009144 bus1=R3-12-47-3_tn_365.1.2 bus2=R3-12-47-3_tm_365.1.2 switch=n enabled=y phases=2 Linecode=2P_OH_Code6

New Line.R3-12-47-3_tl_364 Units=km Length=0.009144 bus1=R3-12-47-3_tn_364.1.2 bus2=R3-12-47-3_tm_364.1.2 switch=n enabled=y phases=2 Linecode=2P_OH_Code6

New Line.R3-12-47-3_tl_369 Units=km Length=0.009144 bus1=R3-12-47-3_tn_369.1.2 bus2=R3-12-47-3_tm_369.1.2 switch=n enabled=y phases=2 Linecode=2P_OH_Code6

New Line.R3-12-47-3_tl_368 Units=km Length=0.009144 bus1=R3-12-47-3_tn_368.1.2 bus2=R3-12-47-3_tm_368.1.2 switch=n enabled=y phases=2 Linecode=2P_OH_Code6

New Line.R3-12-47-3_tl_865 Units=km Length=0.009144 bus1=R3-12-47-3_tn_865.1.2 bus2=R3-12-47-3_tm_865.1.2 switch=n enabled=y phases=2 Linecode=2P_OH_Code6

New Line.R3-12-47-3_ol_142 Units=km Length=0.08147304 bus1=R3-12-47-3_node_169.1.3 bus2=R3-12-47-3_node_183.1.3 switch=n enabled=y phases=2 Linecode=2P_OH_Code5

New Line.R3-12-47-3_ol_143 Units=km Length=0.10305288 bus1=R3-12-47-3_node_158.1.2.3 bus2=R3-12-47-3_node_170.1.2.3 switch=n enabled=y phases=3 Linecode=3P_OH_Code4

New Line.R3-12-47-3_ol_140 Units=km Length=0.21415248 bus1=R3-12-47-3_node_168.1.3 bus2=R3-12-47-3_node_169.1.3 switch=n enabled=y phases=2 Linecode=2P_OH_Code16

New Line.R3-12-47-3_ol_141 Units=km Length=0.11564112 bus1=R3-12-47-3_node_169.1.3 bus2=R3-12-47-3_node_171.1.3 switch=n enabled=y phases=2 Linecode=2P_OH_Code5

New Line.R3-12-47-3_ol_146 Units=km Length=0.09515856 bus1=R3-12-47-3_node_172.1.3 bus2=R3-12-47-3_node_174.1.3 switch=n enabled=y phases=2 Linecode=2P_OH_Code5

New Line.R3-12-47-3_tl_863 Units=km Length=0.009144 bus1=R3-12-47-3_tn_863.2.1 bus2=R3-12-47-3_tm_863.2.1 switch=n enabled=y phases=2 Linecode=2P_OH_Code6

New Line.R3-12-47-3_ol_147 Units=km Length=0.06678168 bus1=R3-12-47-3_node_174.1.3 bus2=R3-12-47-3_node_175.1.3 switch=n enabled=y phases=2 Linecode=2P_OH_Code5

New Line.R3-12-47-3_ol_144 Units=km Length=0.1312164 bus1=R3-12-47-3_node_171.1.3 bus2=R3-12-47-3_node_172.1.3 switch=n enabled=y phases=2 Linecode=2P_OH_Code5

New Line.R3-12-47-3_ol_145 Units=km Length=0.06623304 bus1=R3-12-47-3_node_172.1.3 bus2=R3-12-47-3_node_173.1.3 switch=n enabled=y phases=2 Linecode=2P_OH_Code5

New Line.R3-12-47-3_tl_869 Units=km Length=0.009144 bus1=R3-12-47-3_tn_869.1.2 bus2=R3-12-47-3_tm_869.1.2 switch=n enabled=y phases=2 Linecode=2P_OH_Code6

New Line.R3-12-47-3_ul_48 Units=km Length=0.1694688 bus1=R3-12-47-3_node_633.3.1 bus2=R3-12-47-3_node_636.3.1 switch=n enabled=y phases=2 Linecode=2P_UG_Code9

New Line.R3-12-47-3_ul_49 Units=km Length=0.120396 bus1=R3-12-47-3_node_634.3.1 bus2=R3-12-47-3_node_635.3.1 switch=n enabled=y phases=2 Linecode=2P_UG_Code9

New Line.R3-12-47-3_ul_44 Units=km Length=0.094488 bus1=R3-12-47-3_node_631.3.1 bus2=R3-12-47-3_node_632.3.1 switch=n enabled=y phases=2 Linecode=2P_UG_Code9

New Line.R3-12-47-3_ul_45 Units=km Length=0.153924 bus1=R3-12-47-3_node_631.3.1 bus2=R3-12-47-3_node_633.3.1 switch=n enabled=y phases=2 Linecode=2P_UG_Code9

New Line.R3-12-47-3_ul_46 Units=km Length=0.0786384 bus1=R3-12-47-3_node_631.1.3 bus2=R3-12-47-3_node_642.1.3 switch=n enabled=y phases=2 Linecode=2P_UG_Code17

New Line.R3-12-47-3_ul_47 Units=km Length=0.0390144 bus1=R3-12-47-3_node_633.1.3 bus2=R3-12-47-3_node_634.1.3 switch=n enabled=y phases=2 Linecode=2P_UG_Code9

New Line.R3-12-47-3_ul_40 Units=km Length=0.1618488 bus1=R3-12-47-3_node_2.1.3.2 bus2=R3-12-47-3_node_415.1.3.2 switch=n enabled=y phases=3 Linecode=3P_UG_Code18

New Line.R3-12-47-3_ul_41 Units=km Length=0.003048 bus1=R3-12-47-3_node_2.1 bus2=R3-12-47-3_node_1446.1 switch=n enabled=y phases=1 Linecode=1P_UG_Code19

New Line.R3-12-47-3_ul_42 Units=km Length=0.0646176 bus1=R3-12-47-3_node_613.2.3 bus2=R3-12-47-3_node_614.2.3 switch=n enabled=y phases=2 Linecode=2P_UG_Code11

New Line.R3-12-47-3_ul_43 Units=km Length=0.0448056 bus1=R3-12-47-3_node_630.1.3 bus2=R3-12-47-3_node_631.1.3 switch=n enabled=y phases=2 Linecode=2P_UG_Code17

New Line.R3-12-47-3_tl_1299 Units=km Length=0.009144 bus1=R3-12-47-3_tn_1299.2.1 bus2=R3-12-47-3_tm_1299.2.1 switch=n enabled=y phases=2 Linecode=2P_OH_Code6

New Line.R3-12-47-3_tl_1298 Units=km Length=0.009144 bus1=R3-12-47-3_tn_1298.1.2 bus2=R3-12-47-3_tm_1298.1.2 switch=n enabled=y phases=2 Linecode=2P_OH_Code6

New Line.R3-12-47-3_tl_1295 Units=km Length=0.009144 bus1=R3-12-47-3_tn_1295.1.2 bus2=R3-12-47-3_tm_1295.1.2 switch=n enabled=y phases=2 Linecode=2P_OH_Code6

New Line.R3-12-47-3_tl_1294 Units=km Length=0.009144 bus1=R3-12-47-3_tn_1294.1.2 bus2=R3-12-47-3_tm_1294.1.2 switch=n enabled=y phases=2 Linecode=2P_OH_Code6

New Line.R3-12-47-3_tl_1297 Units=km Length=0.009144 bus1=R3-12-47-3_tn_1297.1.2 bus2=R3-12-47-3_tm_1297.1.2 switch=n enabled=y phases=2 Linecode=2P_OH_Code6

New Line.R3-12-47-3_tl_1296 Units=km Length=0.009144 bus1=R3-12-47-3_tn_1296.1.2 bus2=R3-12-47-3_tm_1296.1.2 switch=n enabled=y phases=2 Linecode=2P_OH_Code6

New Line.R3-12-47-3_tl_1291 Units=km Length=0.009144 bus1=R3-12-47-3_tn_1291.1.2 bus2=R3-12-47-3_tm_1291.1.2 switch=n enabled=y phases=2 Linecode=2P_OH_Code6
