Clear

New Circuit.Full_Network basekv=12.47 pu = 1 R1 = 0 X1= 0.0001 R0= 0 X0 = 0.0001 Bus1 = R1-12-47-4_node_305

!Redirect LineCodes.dss

New Linecode.3P_UG_Code3 units=km Xmatrix=(0.757292936491 0.211000297824 0.211000297824 | 0.211000297824 0.757292936491 0.164005359718 | 0.211000297824 0.164005359718 0.757292936491 ) nphases=3 Rmatrix=(0.0899939594868 0.0329072034253 0.0329072034253 | 0.0329072034253 0.0899939594868 0.0329072034253 | 0.0329072034253 0.0329072034253 0.0899939594868 )

New Linecode.1P_UG_Code8 units=km Xmatrix=(0.757292936491 0.0 0.0 | 0.0 0.0 0.0 | 0.0 0.0 0.0 ) nphases=1 Rmatrix=(0.0899939594868 0.0 0.0 | 0.0 0.0 0.0 | 0.0 0.0 0.0 )

New Linecode.3P_UG_Code0 units=km Xmatrix=(0.865062143623 0.229930887869 0.229930887869 | 0.229930887869 0.865062143623 0.182935949762 | 0.229930887869 0.182935949762 0.865062143623 ) nphases=3 Rmatrix=(0.621401685602 0.0702192132842 0.0702192132842 | 0.0702192132842 0.621401685602 0.0702192132842 | 0.0702192132842 0.0702192132842 0.621401685602 )

New Linecode.3P_UG_Code6 units=km Xmatrix=(0.7582375514 0.211944912733 0.211944912733 | 0.211944912733 0.7582375514 0.164949974627 | 0.211944912733 0.164949974627 0.7582375514 ) nphases=3 Rmatrix=(0.0420538795276 0.0282594047739 0.0282594047739 | 0.0282594047739 0.0420538795276 0.0282594047739 | 0.0282594047739 0.0282594047739 0.0420538795276 )

New Linecode.1P_UG_Code5 units=km Xmatrix=(0.0 0.0 0.0 | 0.0 0.0 0.0 | 0.0 0.0 0.757292936491 ) nphases=1 Rmatrix=(0.0 0.0 0.0 | 0.0 0.0 0.0 | 0.0 0.0 0.0899939594868 )

New Linecode.1P_UG_Code4 units=km Xmatrix=(0.0 0.0 0.0 | 0.0 0.0 0.0 | 0.0 0.0 0.865062143623 ) nphases=1 Rmatrix=(0.0 0.0 0.0 | 0.0 0.0 0.0 | 0.0 0.0 0.621401685602 )

New Linecode.2P_OH_Code7 units=km Xmatrix=(-0.200680358561 -0.117163997415 | -0.117163997415 -0.200680358561 ) nphases=2 Rmatrix=(0.0080297706168 0.00460515099956 | 0.00460515099956 0.0080297706168 )

New Linecode.1P_OH_Code1 units=km Xmatrix=(1e-05 ) nphases=1 Rmatrix=(1e-05 )

New Linecode.3P_OH_Code2 units=km Xmatrix=(1e-05 0.0 0.0 | 0.0 1e-05 0.0 | 0.0 0.0 1e-05 ) nphases=3 Rmatrix=(1e-05 0.0 0.0 | 0.0 1e-05 0.0 | 0.0 0.0 1e-05 )

New Linecode.1P_UG_Code9 units=km Xmatrix=(0.865062143623 0.0 0.0 | 0.0 0.0 0.0 | 0.0 0.0 0.0 ) nphases=1 Rmatrix=(0.621401685602 0.0 0.0 | 0.0 0.0 0.0 | 0.0 0.0 0.0 )

!Redirect Lines.dss

New Line.R1-12-47-4_ul_227 Units=km Length=0.108204 bus1=R1-12-47-4_node_245.2.1.3 bus2=R1-12-47-4_node_246.2.1.3 switch=n enabled=y phases=3 Linecode=3P_UG_Code0

New Line.R1-12-47-4_fuse_2 Units=km Length=0.001 bus1=R1-12-47-4_node_21.1 bus2=R1-12-47-4_node_287.1 switch=n enabled=y phases=1 Linecode=1P_OH_Code1

New Fuse.Fuse_R1-12-47-4_fuse_2 monitoredobj=Line.R1-12-47-4_fuse_2 enabled=y

New Line.R1-12-47-4_fuse_3 Units=km Length=0.001 bus1=R1-12-47-4_node_24.1 bus2=R1-12-47-4_node_288.1 switch=n enabled=y phases=1 Linecode=1P_OH_Code1

New Fuse.Fuse_R1-12-47-4_fuse_3 monitoredobj=Line.R1-12-47-4_fuse_3 enabled=y

New Line.R1-12-47-4_fuse_1 Units=km Length=0.001 bus1=R1-12-47-4_node_10.1.2.3 bus2=R1-12-47-4_node_169.1.2.3 switch=n enabled=y phases=3 Linecode=3P_OH_Code2

New Fuse.Fuse_R1-12-47-4_fuse_1 monitoredobj=Line.R1-12-47-4_fuse_1 enabled=y

New Line.R1-12-47-4_fuse_6 Units=km Length=0.001 bus1=R1-12-47-4_node_41.3 bus2=R1-12-47-4_node_291.3 switch=n enabled=y phases=1 Linecode=1P_OH_Code1

New Fuse.Fuse_R1-12-47-4_fuse_6 monitoredobj=Line.R1-12-47-4_fuse_6 enabled=y

New Line.R1-12-47-4_fuse_7 Units=km Length=0.001 bus1=R1-12-47-4_node_43.3 bus2=R1-12-47-4_node_292.3 switch=n enabled=y phases=1 Linecode=1P_OH_Code1

New Fuse.Fuse_R1-12-47-4_fuse_7 monitoredobj=Line.R1-12-47-4_fuse_7 enabled=y

New Line.R1-12-47-4_fuse_4 Units=km Length=0.001 bus1=R1-12-47-4_node_27.1 bus2=R1-12-47-4_node_289.1 switch=n enabled=y phases=1 Linecode=1P_OH_Code1

New Fuse.Fuse_R1-12-47-4_fuse_4 monitoredobj=Line.R1-12-47-4_fuse_4 enabled=y

New Line.R1-12-47-4_fuse_5 Units=km Length=0.001 bus1=R1-12-47-4_node_38.3 bus2=R1-12-47-4_node_290.3 switch=n enabled=y phases=1 Linecode=1P_OH_Code1

New Fuse.Fuse_R1-12-47-4_fuse_5 monitoredobj=Line.R1-12-47-4_fuse_5 enabled=y

New Line.R1-12-47-4_fuse_8 Units=km Length=0.001 bus1=R1-12-47-4_node_50.3 bus2=R1-12-47-4_node_293.3 switch=n enabled=y phases=1 Linecode=1P_OH_Code1

New Fuse.Fuse_R1-12-47-4_fuse_8 monitoredobj=Line.R1-12-47-4_fuse_8 enabled=y

New Line.R1-12-47-4_fuse_9 Units=km Length=0.001 bus1=R1-12-47-4_node_54.1.2.3 bus2=R1-12-47-4_node_294.1.2.3 switch=n enabled=y phases=3 Linecode=3P_OH_Code2

New Fuse.Fuse_R1-12-47-4_fuse_9 monitoredobj=Line.R1-12-47-4_fuse_9 enabled=y

New Line.R1-12-47-4_fuse_32 Units=km Length=0.001 bus1=R1-12-47-4_node_144.1.2.3 bus2=R1-12-47-4_node_226.1.2.3 switch=n enabled=y phases=3 Linecode=3P_OH_Code2

New Fuse.Fuse_R1-12-47-4_fuse_32 monitoredobj=Line.R1-12-47-4_fuse_32 enabled=y

New Line.R1-12-47-4_fuse_33 Units=km Length=0.001 bus1=R1-12-47-4_node_111.1.2.3 bus2=R1-12-47-4_node_227.1.2.3 switch=n enabled=y phases=3 Linecode=3P_OH_Code2

New Fuse.Fuse_R1-12-47-4_fuse_33 monitoredobj=Line.R1-12-47-4_fuse_33 enabled=y

New Line.R1-12-47-4_fuse_30 Units=km Length=0.001 bus1=R1-12-47-4_node_120.1.2.3 bus2=R1-12-47-4_node_224.1.2.3 switch=n enabled=y phases=3 Linecode=3P_OH_Code2

New Fuse.Fuse_R1-12-47-4_fuse_30 monitoredobj=Line.R1-12-47-4_fuse_30 enabled=y

New Line.R1-12-47-4_fuse_31 Units=km Length=0.001 bus1=R1-12-47-4_node_140.1.2.3 bus2=R1-12-47-4_node_225.1.2.3 switch=n enabled=y phases=3 Linecode=3P_OH_Code2

New Fuse.Fuse_R1-12-47-4_fuse_31 monitoredobj=Line.R1-12-47-4_fuse_31 enabled=y

New Line.R1-12-47-4_fuse_36 Units=km Length=0.001 bus1=R1-12-47-4_node_126.1.2.3 bus2=R1-12-47-4_node_230.1.2.3 switch=n enabled=y phases=3 Linecode=3P_OH_Code2

New Fuse.Fuse_R1-12-47-4_fuse_36 monitoredobj=Line.R1-12-47-4_fuse_36 enabled=y

New Line.R1-12-47-4_fuse_37 Units=km Length=0.001 bus1=R1-12-47-4_node_204.1.2.3 bus2=R1-12-47-4_node_107.1.2.3 switch=n enabled=y phases=3 Linecode=3P_OH_Code2

New Fuse.Fuse_R1-12-47-4_fuse_37 monitoredobj=Line.R1-12-47-4_fuse_37 enabled=y

New Line.R1-12-47-4_fuse_34 Units=km Length=0.001 bus1=R1-12-47-4_node_113.1.2.3 bus2=R1-12-47-4_node_228.1.2.3 switch=n enabled=y phases=3 Linecode=3P_OH_Code2

New Fuse.Fuse_R1-12-47-4_fuse_34 monitoredobj=Line.R1-12-47-4_fuse_34 enabled=y

New Line.R1-12-47-4_fuse_35 Units=km Length=0.001 bus1=R1-12-47-4_node_115.1.2.3 bus2=R1-12-47-4_node_229.1.2.3 switch=n enabled=y phases=3 Linecode=3P_OH_Code2

New Fuse.Fuse_R1-12-47-4_fuse_35 monitoredobj=Line.R1-12-47-4_fuse_35 enabled=y

New Line.R1-12-47-4_fuse_38 Units=km Length=0.001 bus1=R1-12-47-4_node_209.1.2.3 bus2=R1-12-47-4_node_106.1.2.3 switch=n enabled=y phases=3 Linecode=3P_OH_Code2

New Fuse.Fuse_R1-12-47-4_fuse_38 monitoredobj=Line.R1-12-47-4_fuse_38 enabled=y

New Line.R1-12-47-4_fuse_39 Units=km Length=0.001 bus1=R1-12-47-4_node_153.1.2.3 bus2=R1-12-47-4_node_237.1.2.3 switch=n enabled=y phases=3 Linecode=3P_OH_Code2

New Fuse.Fuse_R1-12-47-4_fuse_39 monitoredobj=Line.R1-12-47-4_fuse_39 enabled=y

New Line.R1-12-47-4_ul_232 Units=km Length=0.001 bus1=R1-12-47-4_node_240.3.1.2 bus2=R1-12-47-4_node_159.3.1.2 switch=n enabled=y phases=3 Linecode=3P_UG_Code3

New Line.R1-12-47-4_ul_144 Units=km Length=0.0542544 bus1=R1-12-47-4_node_210.1.2.3 bus2=R1-12-47-4_node_112.1.2.3 switch=n enabled=y phases=3 Linecode=3P_UG_Code0

New Line.R1-12-47-4_ul_179 Units=km Length=0.0713232 bus1=R1-12-47-4_node_142.3.1.2 bus2=R1-12-47-4_node_143.3.1.2 switch=n enabled=y phases=3 Linecode=3P_UG_Code0

New Line.R1-12-47-4_ul_60 Units=km Length=0.0704088 bus1=R1-12-47-4_node_60.1.2.3 bus2=R1-12-47-4_node_280.1.2.3 switch=n enabled=y phases=3 Linecode=3P_UG_Code0

New Line.R1-12-47-4_ul_168 Units=km Length=0.0134112 bus1=R1-12-47-4_node_131.2.1.3 bus2=R1-12-47-4_node_105.2.1.3 switch=n enabled=y phases=3 Linecode=3P_UG_Code0

New Line.R1-12-47-4_ul_143 Units=km Length=0.0359664 bus1=R1-12-47-4_node_110.3.1.2 bus2=R1-12-47-4_node_109.3.1.2 switch=n enabled=y phases=3 Linecode=3P_UG_Code3

New Line.R1-12-47-4_ul_142 Units=km Length=0.0283464 bus1=R1-12-47-4_node_143.1.3.2 bus2=R1-12-47-4_node_221.1.3.2 switch=n enabled=y phases=3 Linecode=3P_UG_Code0

New Line.R1-12-47-4_ul_141 Units=km Length=0.0865632 bus1=R1-12-47-4_node_130.3.1.2 bus2=R1-12-47-4_node_139.3.1.2 switch=n enabled=y phases=3 Linecode=3P_UG_Code3

New Line.R1-12-47-4_ul_140 Units=km Length=0.1103376 bus1=R1-12-47-4_node_104.1.3.2 bus2=R1-12-47-4_node_4.1.3.2 switch=n enabled=y phases=3 Linecode=3P_UG_Code0

New Line.R1-12-47-4_ul_147 Units=km Length=0.077724 bus1=R1-12-47-4_node_114.3.1.2 bus2=R1-12-47-4_node_213.3.1.2 switch=n enabled=y phases=3 Linecode=3P_UG_Code0

New Line.R1-12-47-4_ul_146 Units=km Length=0.004572 bus1=R1-12-47-4_node_212.1.3.2 bus2=R1-12-47-4_node_114.1.3.2 switch=n enabled=y phases=3 Linecode=3P_UG_Code0

New Line.R1-12-47-4_ul_145 Units=km Length=0.0051816 bus1=R1-12-47-4_node_112.3.1.2 bus2=R1-12-47-4_node_211.3.1.2 switch=n enabled=y phases=3 Linecode=3P_UG_Code0

New Line.R1-12-47-4_ul_109 Units=km Length=0.0582168 bus1=R1-12-47-4_node_98.1.3.2 bus2=R1-12-47-4_node_97.1.3.2 switch=n enabled=y phases=3 Linecode=3P_UG_Code3

New Line.R1-12-47-4_ul_149 Units=km Length=0.0896112 bus1=R1-12-47-4_node_117.3.1.2 bus2=R1-12-47-4_node_116.3.1.2 switch=n enabled=y phases=3 Linecode=3P_UG_Code3

New Line.R1-12-47-4_ul_148 Units=km Length=0.0408432 bus1=R1-12-47-4_node_116.1.3.2 bus2=R1-12-47-4_node_110.1.3.2 switch=n enabled=y phases=3 Linecode=3P_UG_Code3

New Line.R1-12-47-4_ul_49 Units=km Length=0.01524 bus1=R1-12-47-4_node_53.3 bus2=R1-12-47-4_node_52.3 switch=n enabled=y phases=1 Linecode=1P_UG_Code4

New Line.R1-12-47-4_ul_48 Units=km Length=0.02286 bus1=R1-12-47-4_node_51.3 bus2=R1-12-47-4_node_267.3 switch=n enabled=y phases=1 Linecode=1P_UG_Code4

New Line.R1-12-47-4_ul_157 Units=km Length=0.071628 bus1=R1-12-47-4_node_119.1.2.3 bus2=R1-12-47-4_node_215.1.2.3 switch=n enabled=y phases=3 Linecode=3P_UG_Code0

New Line.R1-12-47-4_ul_41 Units=km Length=0.1673352 bus1=R1-12-47-4_node_42.3 bus2=R1-12-47-4_node_264.3 switch=n enabled=y phases=1 Linecode=1P_UG_Code4

New Line.R1-12-47-4_ul_17 Units=km Length=0.001 bus1=R1-12-47-4_node_41.3 bus2=R1-12-47-4_node_263.3 switch=n enabled=y phases=1 Linecode=1P_UG_Code5

New Line.R1-12-47-4_ul_43 Units=km Length=0.0158496 bus1=R1-12-47-4_node_45.3 bus2=R1-12-47-4_node_44.3 switch=n enabled=y phases=1 Linecode=1P_UG_Code4

New Line.R1-12-47-4_ul_42 Units=km Length=0.0219456 bus1=R1-12-47-4_node_44.3 bus2=R1-12-47-4_node_265.3 switch=n enabled=y phases=1 Linecode=1P_UG_Code4

New Line.R1-12-47-4_ul_45 Units=km Length=0.1045464 bus1=R1-12-47-4_node_47.3 bus2=R1-12-47-4_node_46.3 switch=n enabled=y phases=1 Linecode=1P_UG_Code4

New Line.R1-12-47-4_ul_44 Units=km Length=0.0201168 bus1=R1-12-47-4_node_46.3 bus2=R1-12-47-4_node_45.3 switch=n enabled=y phases=1 Linecode=1P_UG_Code4

New Line.R1-12-47-4_ul_47 Units=km Length=0.0234696 bus1=R1-12-47-4_node_266.3 bus2=R1-12-47-4_node_49.3 switch=n enabled=y phases=1 Linecode=1P_UG_Code4

New Line.R1-12-47-4_ul_46 Units=km Length=0.0207264 bus1=R1-12-47-4_node_49.3 bus2=R1-12-47-4_node_48.3 switch=n enabled=y phases=1 Linecode=1P_UG_Code4

New Line.R1-12-47-4_ul_132 Units=km Length=0.0012192 bus1=R1-12-47-4_node_177.1.3.2 bus2=R1-12-47-4_node_178.1.3.2 switch=n enabled=y phases=3 Linecode=3P_UG_Code6

New Line.R1-12-47-4_ul_133 Units=km Length=0.003048 bus1=R1-12-47-4_node_180.2.1.3 bus2=R1-12-47-4_node_177.2.1.3 switch=n enabled=y phases=3 Linecode=3P_UG_Code6

New Line.R1-12-47-4_ul_130 Units=km Length=0.0012192 bus1=R1-12-47-4_node_174.1.2.3 bus2=R1-12-47-4_node_175.1.2.3 switch=n enabled=y phases=3 Linecode=3P_UG_Code6

New Line.R1-12-47-4_ul_208 Units=km Length=0.2542032 bus1=R1-12-47-4_node_151.1.3.2 bus2=R1-12-47-4_node_152.1.3.2 switch=n enabled=y phases=3 Linecode=3P_UG_Code3

New Line.R1-12-47-4_ul_209 Units=km Length=0.1712976 bus1=R1-12-47-4_node_152.2.1.3 bus2=R1-12-47-4_node_117.2.1.3 switch=n enabled=y phases=3 Linecode=3P_UG_Code3

New Line.R1-12-47-4_switch_9 Units=km Length=0.001 bus1=R1-12-47-4_node_72.1.2.3 bus2=R1-12-47-4_node_172.1.2.3 switch=y enabled=y phases=3 Linecode=3P_OH_Code2

New Line.R1-12-47-4_switch_8 Units=km Length=0.001 bus1=R1-12-47-4_node_182.1.2.3 bus2=R1-12-47-4_node_303.1.2.3 switch=y enabled=y phases=3 Linecode=3P_OH_Code2

New Line.R1-12-47-4_switch_7 Units=km Length=0.001 bus1=R1-12-47-4_node_193.1.2.3 bus2=R1-12-47-4_node_96.1.2.3 switch=y enabled=y phases=3 Linecode=3P_OH_Code2

New Line.R1-12-47-4_switch_6 Units=km Length=0.001 bus1=R1-12-47-4_node_194.1.2.3 bus2=R1-12-47-4_node_102.1.2.3 switch=y enabled=y phases=3 Linecode=3P_OH_Code2

New Line.R1-12-47-4_switch_5 Units=km Length=0.001 bus1=R1-12-47-4_node_286.3 bus2=R1-12-47-4_node_31.3 switch=y enabled=y phases=1 Linecode=1P_OH_Code1

New Line.R1-12-47-4_switch_4 Units=km Length=0.001 bus1=R1-12-47-4_node_251.1 bus2=R1-12-47-4_node_13.1 switch=y enabled=y phases=1 Linecode=1P_OH_Code1

New Line.R1-12-47-4_switch_3 Units=km Length=0.001 bus1=R1-12-47-4_node_275.1.2.3 bus2=R1-12-47-4_node_68.1.2.3 switch=y enabled=y phases=3 Linecode=3P_OH_Code2

New Line.R1-12-47-4_switch_2 Units=km Length=0.001 bus1=R1-12-47-4_node_10.1.2.3 bus2=R1-12-47-4_node_167.1.2.3 switch=y enabled=y phases=3 Linecode=3P_OH_Code2

New Line.R1-12-47-4_switch_1 Units=km Length=0.001 bus1=R1-12-47-4_node_4.1.2.3 bus2=R1-12-47-4_node_5.1.2.3 switch=y enabled=y phases=3 Linecode=3P_OH_Code2

New Line.R1-12-47-4_ul_203 Units=km Length=0.003048 bus1=R1-12-47-4_node_208.2.1.3 bus2=R1-12-47-4_node_205.2.1.3 switch=n enabled=y phases=3 Linecode=3P_UG_Code6

New Line.R1-12-47-4_ul_18 Units=km Length=0.001 bus1=R1-12-47-4_node_264.3 bus2=R1-12-47-4_node_41.3 switch=n enabled=y phases=1 Linecode=1P_UG_Code5

New Line.R1-12-47-4_ul_234 Units=km Length=0.001 bus1=R1-12-47-4_node_157.3.1.2 bus2=R1-12-47-4_node_239.3.1.2 switch=n enabled=y phases=3 Linecode=3P_UG_Code3

New Line.R1-12-47-4_tl_19 Units=km Length=0.009144 bus1=R1-12-47-4_tn_19.1.2 bus2=R1-12-47-4_tm_19.1.2 switch=n enabled=y phases=2 Linecode=2P_OH_Code7

New Line.R1-12-47-4_tl_18 Units=km Length=0.009144 bus1=R1-12-47-4_tn_18.1.2 bus2=R1-12-47-4_tm_18.1.2 switch=n enabled=y phases=2 Linecode=2P_OH_Code7

New Line.R1-12-47-4_tl_17 Units=km Length=0.009144 bus1=R1-12-47-4_tn_17.1.2 bus2=R1-12-47-4_tm_17.1.2 switch=n enabled=y phases=2 Linecode=2P_OH_Code7

New Line.R1-12-47-4_tl_16 Units=km Length=0.009144 bus1=R1-12-47-4_tn_16.1.2 bus2=R1-12-47-4_tm_16.1.2 switch=n enabled=y phases=2 Linecode=2P_OH_Code7

New Line.R1-12-47-4_tl_15 Units=km Length=0.009144 bus1=R1-12-47-4_tn_15.1.2 bus2=R1-12-47-4_tm_15.1.2 switch=n enabled=y phases=2 Linecode=2P_OH_Code7

New Line.R1-12-47-4_tl_13 Units=km Length=0.009144 bus1=R1-12-47-4_tn_13.1.2 bus2=R1-12-47-4_tm_13.1.2 switch=n enabled=y phases=2 Linecode=2P_OH_Code7

New Line.R1-12-47-4_tl_12 Units=km Length=0.009144 bus1=R1-12-47-4_tn_12.2.1 bus2=R1-12-47-4_tm_12.2.1 switch=n enabled=y phases=2 Linecode=2P_OH_Code7

New Line.R1-12-47-4_tl_11 Units=km Length=0.009144 bus1=R1-12-47-4_tn_11.1.2 bus2=R1-12-47-4_tm_11.1.2 switch=n enabled=y phases=2 Linecode=2P_OH_Code7

New Line.R1-12-47-4_tl_10 Units=km Length=0.009144 bus1=R1-12-47-4_tn_10.1.2 bus2=R1-12-47-4_tm_10.1.2 switch=n enabled=y phases=2 Linecode=2P_OH_Code7

New Line.R1-12-47-4_ul_165 Units=km Length=0.028956 bus1=R1-12-47-4_node_128.2.1.3 bus2=R1-12-47-4_node_129.2.1.3 switch=n enabled=y phases=3 Linecode=3P_UG_Code0

New Line.R1-12-47-4_ul_164 Units=km Length=0.0161544 bus1=R1-12-47-4_node_127.1.2.3 bus2=R1-12-47-4_node_128.1.2.3 switch=n enabled=y phases=3 Linecode=3P_UG_Code0

New Line.R1-12-47-4_ul_167 Units=km Length=0.1399032 bus1=R1-12-47-4_node_129.1.2.3 bus2=R1-12-47-4_node_131.1.2.3 switch=n enabled=y phases=3 Linecode=3P_UG_Code0

New Line.R1-12-47-4_ul_166 Units=km Length=0.0405384 bus1=R1-12-47-4_node_122.3.1.2 bus2=R1-12-47-4_node_130.3.1.2 switch=n enabled=y phases=3 Linecode=3P_UG_Code3

New Line.R1-12-47-4_ul_161 Units=km Length=0.10668 bus1=R1-12-47-4_node_124.2.1.3 bus2=R1-12-47-4_node_125.2.1.3 switch=n enabled=y phases=3 Linecode=3P_UG_Code0

New Line.R1-12-47-4_ul_160 Units=km Length=0.1380744 bus1=R1-12-47-4_node_123.3.1.2 bus2=R1-12-47-4_node_124.3.1.2 switch=n enabled=y phases=3 Linecode=3P_UG_Code0

New Line.R1-12-47-4_ul_226 Units=km Length=0.0573024 bus1=R1-12-47-4_node_163.1.2.3 bus2=R1-12-47-4_node_244.1.2.3 switch=n enabled=y phases=3 Linecode=3P_UG_Code0

New Line.R1-12-47-4_ul_189 Units=km Length=0.001 bus1=R1-12-47-4_node_213.2.1.3 bus2=R1-12-47-4_node_115.2.1.3 switch=n enabled=y phases=3 Linecode=3P_UG_Code3

New Line.R1-12-47-4_ul_188 Units=km Length=0.001 bus1=R1-12-47-4_node_113.1.3.2 bus2=R1-12-47-4_node_212.1.3.2 switch=n enabled=y phases=3 Linecode=3P_UG_Code3

New Line.R1-12-47-4_ul_187 Units=km Length=0.001 bus1=R1-12-47-4_node_211.1.2.3 bus2=R1-12-47-4_node_113.1.2.3 switch=n enabled=y phases=3 Linecode=3P_UG_Code3

New Line.R1-12-47-4_ul_186 Units=km Length=0.001 bus1=R1-12-47-4_node_111.1.3.2 bus2=R1-12-47-4_node_210.1.3.2 switch=n enabled=y phases=3 Linecode=3P_UG_Code3

New Line.R1-12-47-4_ul_185 Units=km Length=0.001 bus1=R1-12-47-4_node_223.3.1.2 bus2=R1-12-47-4_node_111.3.1.2 switch=n enabled=y phases=3 Linecode=3P_UG_Code3

New Line.R1-12-47-4_ul_184 Units=km Length=0.001 bus1=R1-12-47-4_node_120.1.3.2 bus2=R1-12-47-4_node_216.1.3.2 switch=n enabled=y phases=3 Linecode=3P_UG_Code3

New Line.R1-12-47-4_ul_183 Units=km Length=0.001 bus1=R1-12-47-4_node_215.3.1.2 bus2=R1-12-47-4_node_120.3.1.2 switch=n enabled=y phases=3 Linecode=3P_UG_Code3

New Line.R1-12-47-4_ul_182 Units=km Length=0.001 bus1=R1-12-47-4_node_146.1.3.2 bus2=R1-12-47-4_node_6.1.3.2 switch=n enabled=y phases=3 Linecode=3P_UG_Code3

New Line.R1-12-47-4_ul_181 Units=km Length=0.0521208 bus1=R1-12-47-4_node_106.3.1.2 bus2=R1-12-47-4_node_223.3.1.2 switch=n enabled=y phases=3 Linecode=3P_UG_Code0

New Line.R1-12-47-4_ul_180 Units=km Length=0.111252 bus1=R1-12-47-4_node_139.1.3.2 bus2=R1-12-47-4_node_222.1.3.2 switch=n enabled=y phases=3 Linecode=3P_UG_Code3

New Line.R1-12-47-4_ul_131 Units=km Length=0.0012192 bus1=R1-12-47-4_node_177.3.1.2 bus2=R1-12-47-4_node_176.3.1.2 switch=n enabled=y phases=3 Linecode=3P_UG_Code6

New Line.R1-12-47-4_ul_98 Units=km Length=0.0067056 bus1=R1-12-47-4_node_185.1.3.2 bus2=R1-12-47-4_node_86.1.3.2 switch=n enabled=y phases=3 Linecode=3P_UG_Code0

New Line.R1-12-47-4_ul_92 Units=km Length=0.0789432 bus1=R1-12-47-4_node_81.3.1.2 bus2=R1-12-47-4_node_182.3.1.2 switch=n enabled=y phases=3 Linecode=3P_UG_Code0

New Line.R1-12-47-4_ul_93 Units=km Length=0.1697736 bus1=R1-12-47-4_node_78.3.1.2 bus2=R1-12-47-4_node_79.3.1.2 switch=n enabled=y phases=3 Linecode=3P_UG_Code3

New Line.R1-12-47-4_ul_90 Units=km Length=0.001 bus1=R1-12-47-4_node_284.1.3.2 bus2=R1-12-47-4_node_64.1.3.2 switch=n enabled=y phases=3 Linecode=3P_UG_Code3

New Line.R1-12-47-4_ul_91 Units=km Length=0.001 bus1=R1-12-47-4_node_278.1.2.3 bus2=R1-12-47-4_node_58.1.2.3 switch=n enabled=y phases=3 Linecode=3P_UG_Code3

New Line.R1-12-47-4_ul_96 Units=km Length=0.1069848 bus1=R1-12-47-4_node_183.1.3.2 bus2=R1-12-47-4_node_83.1.3.2 switch=n enabled=y phases=3 Linecode=3P_UG_Code0

New Line.R1-12-47-4_ul_97 Units=km Length=0.0917448 bus1=R1-12-47-4_node_86.3.1.2 bus2=R1-12-47-4_node_85.3.1.2 switch=n enabled=y phases=3 Linecode=3P_UG_Code0

New Line.R1-12-47-4_ul_94 Units=km Length=0.0524256 bus1=R1-12-47-4_node_82.1.3.2 bus2=R1-12-47-4_node_81.1.3.2 switch=n enabled=y phases=3 Linecode=3P_UG_Code0

New Line.R1-12-47-4_ul_95 Units=km Length=0.0877824 bus1=R1-12-47-4_node_83.3.1.2 bus2=R1-12-47-4_node_82.3.1.2 switch=n enabled=y phases=3 Linecode=3P_UG_Code0

New Line.R1-12-47-4_ul_70 Units=km Length=0.001 bus1=R1-12-47-4_node_50.3 bus2=R1-12-47-4_node_266.3 switch=n enabled=y phases=1 Linecode=1P_UG_Code5

New Line.R1-12-47-4_ul_71 Units=km Length=0.001 bus1=R1-12-47-4_node_267.3 bus2=R1-12-47-4_node_50.3 switch=n enabled=y phases=1 Linecode=1P_UG_Code5

New Line.R1-12-47-4_ul_72 Units=km Length=0.001 bus1=R1-12-47-4_node_259.1 bus2=R1-12-47-4_node_27.1 switch=n enabled=y phases=1 Linecode=1P_UG_Code8

New Line.R1-12-47-4_ul_73 Units=km Length=0.001 bus1=R1-12-47-4_node_27.1 bus2=R1-12-47-4_node_258.1 switch=n enabled=y phases=1 Linecode=1P_UG_Code8

New Line.R1-12-47-4_ul_74 Units=km Length=0.001 bus1=R1-12-47-4_node_24.1 bus2=R1-12-47-4_node_256.1 switch=n enabled=y phases=1 Linecode=1P_UG_Code8

New Line.R1-12-47-4_ul_75 Units=km Length=0.001 bus1=R1-12-47-4_node_257.1 bus2=R1-12-47-4_node_24.1 switch=n enabled=y phases=1 Linecode=1P_UG_Code8

New Line.R1-12-47-4_ul_76 Units=km Length=0.001 bus1=R1-12-47-4_node_255.1 bus2=R1-12-47-4_node_21.1 switch=n enabled=y phases=1 Linecode=1P_UG_Code8

New Line.R1-12-47-4_ul_77 Units=km Length=0.001 bus1=R1-12-47-4_node_21.1 bus2=R1-12-47-4_node_254.1 switch=n enabled=y phases=1 Linecode=1P_UG_Code8

New Line.R1-12-47-4_ul_78 Units=km Length=0.001 bus1=R1-12-47-4_node_19.1 bus2=R1-12-47-4_node_252.1 switch=n enabled=y phases=1 Linecode=1P_UG_Code8

New Line.R1-12-47-4_ul_79 Units=km Length=0.001 bus1=R1-12-47-4_node_253.1 bus2=R1-12-47-4_node_19.1 switch=n enabled=y phases=1 Linecode=1P_UG_Code8

New Line.R1-12-47-4_ul_229 Units=km Length=0.001 bus1=R1-12-47-4_node_244.1.3.2 bus2=R1-12-47-4_node_164.1.3.2 switch=n enabled=y phases=3 Linecode=3P_UG_Code3

New Line.R1-12-47-4_ul_205 Units=km Length=0.0012192 bus1=R1-12-47-4_node_208.2.1.3 bus2=R1-12-47-4_node_209.2.1.3 switch=n enabled=y phases=3 Linecode=3P_UG_Code6

New Line.R1-12-47-4_ul_99 Units=km Length=0.0039624 bus1=R1-12-47-4_node_88.1.2.3 bus2=R1-12-47-4_node_186.1.2.3 switch=n enabled=y phases=3 Linecode=3P_UG_Code0

New Line.R1-12-47-4_ul_235 Units=km Length=0.001 bus1=R1-12-47-4_node_238.1.3.2 bus2=R1-12-47-4_node_157.1.3.2 switch=n enabled=y phases=3 Linecode=3P_UG_Code3

New Line.R1-12-47-4_fuse_21 Units=km Length=0.001 bus1=R1-12-47-4_node_58.1.2.3 bus2=R1-12-47-4_node_195.1.2.3 switch=n enabled=y phases=3 Linecode=3P_OH_Code2

New Fuse.Fuse_R1-12-47-4_fuse_21 monitoredobj=Line.R1-12-47-4_fuse_21 enabled=y

New Line.R1-12-47-4_fuse_20 Units=km Length=0.001 bus1=R1-12-47-4_node_56.1.2.3 bus2=R1-12-47-4_node_276.1.2.3 switch=n enabled=y phases=3 Linecode=3P_OH_Code2

New Fuse.Fuse_R1-12-47-4_fuse_20 monitoredobj=Line.R1-12-47-4_fuse_20 enabled=y

New Line.R1-12-47-4_fuse_23 Units=km Length=0.001 bus1=R1-12-47-4_node_87.1.2.3 bus2=R1-12-47-4_node_197.1.2.3 switch=n enabled=y phases=3 Linecode=3P_OH_Code2

New Fuse.Fuse_R1-12-47-4_fuse_23 monitoredobj=Line.R1-12-47-4_fuse_23 enabled=y

New Line.R1-12-47-4_fuse_22 Units=km Length=0.001 bus1=R1-12-47-4_node_84.1.2.3 bus2=R1-12-47-4_node_196.1.2.3 switch=n enabled=y phases=3 Linecode=3P_OH_Code2

New Fuse.Fuse_R1-12-47-4_fuse_22 monitoredobj=Line.R1-12-47-4_fuse_22 enabled=y

New Line.R1-12-47-4_fuse_25 Units=km Length=0.001 bus1=R1-12-47-4_node_93.1.2.3 bus2=R1-12-47-4_node_199.1.2.3 switch=n enabled=y phases=3 Linecode=3P_OH_Code2

New Fuse.Fuse_R1-12-47-4_fuse_25 monitoredobj=Line.R1-12-47-4_fuse_25 enabled=y

New Line.R1-12-47-4_fuse_24 Units=km Length=0.001 bus1=R1-12-47-4_node_91.1.2.3 bus2=R1-12-47-4_node_198.1.2.3 switch=n enabled=y phases=3 Linecode=3P_OH_Code2

New Fuse.Fuse_R1-12-47-4_fuse_24 monitoredobj=Line.R1-12-47-4_fuse_24 enabled=y

New Line.R1-12-47-4_fuse_27 Units=km Length=0.001 bus1=R1-12-47-4_node_175.1.2.3 bus2=R1-12-47-4_node_74.1.2.3 switch=n enabled=y phases=3 Linecode=3P_OH_Code2

New Fuse.Fuse_R1-12-47-4_fuse_27 monitoredobj=Line.R1-12-47-4_fuse_27 enabled=y

New Line.R1-12-47-4_fuse_26 Units=km Length=0.001 bus1=R1-12-47-4_node_170.1.2.3 bus2=R1-12-47-4_node_73.1.2.3 switch=n enabled=y phases=3 Linecode=3P_OH_Code2

New Fuse.Fuse_R1-12-47-4_fuse_26 monitoredobj=Line.R1-12-47-4_fuse_26 enabled=y

New Line.R1-12-47-4_fuse_29 Units=km Length=0.001 bus1=R1-12-47-4_node_181.1.2.3 bus2=R1-12-47-4_node_76.1.2.3 switch=n enabled=y phases=3 Linecode=3P_OH_Code2

New Fuse.Fuse_R1-12-47-4_fuse_29 monitoredobj=Line.R1-12-47-4_fuse_29 enabled=y

New Line.R1-12-47-4_fuse_28 Units=km Length=0.001 bus1=R1-12-47-4_node_176.1.2.3 bus2=R1-12-47-4_node_77.1.2.3 switch=n enabled=y phases=3 Linecode=3P_OH_Code2

New Fuse.Fuse_R1-12-47-4_fuse_28 monitoredobj=Line.R1-12-47-4_fuse_28 enabled=y

New Line.R1-12-47-4_ul_138 Units=km Length=0.001 bus1=R1-12-47-4_node_189.2.1.3 bus2=R1-12-47-4_node_59.2.1.3 switch=n enabled=y phases=3 Linecode=3P_UG_Code3

New Line.R1-12-47-4_ul_169 Units=km Length=0.0143256 bus1=R1-12-47-4_node_103.3.1.2 bus2=R1-12-47-4_node_132.3.1.2 switch=n enabled=y phases=3 Linecode=3P_UG_Code0

New Line.R1-12-47-4_ul_237 Units=km Length=0.001 bus1=R1-12-47-4_node_232.1.2.3 bus2=R1-12-47-4_node_231.1.2.3 switch=n enabled=y phases=3 Linecode=3P_UG_Code3

New Line.R1-12-47-4_ul_135 Units=km Length=0.0012192 bus1=R1-12-47-4_node_180.1.3.2 bus2=R1-12-47-4_node_181.1.3.2 switch=n enabled=y phases=3 Linecode=3P_UG_Code6

New Line.R1-12-47-4_ul_236 Units=km Length=0.001 bus1=R1-12-47-4_node_302.3.1.2 bus2=R1-12-47-4_node_149.3.1.2 switch=n enabled=y phases=3 Linecode=3P_UG_Code3

New Line.R1-12-47-4_ul_154 Units=km Length=0.0786384 bus1=R1-12-47-4_node_147.1.3.2 bus2=R1-12-47-4_node_148.1.3.2 switch=n enabled=y phases=3 Linecode=3P_UG_Code3

New Line.R1-12-47-4_ul_155 Units=km Length=0.0338328 bus1=R1-12-47-4_node_107.3.1.2 bus2=R1-12-47-4_node_118.3.1.2 switch=n enabled=y phases=3 Linecode=3P_UG_Code0

New Line.R1-12-47-4_ul_156 Units=km Length=0.0414528 bus1=R1-12-47-4_node_118.1.3.2 bus2=R1-12-47-4_node_119.1.3.2 switch=n enabled=y phases=3 Linecode=3P_UG_Code0

New Line.R1-12-47-4_ul_150 Units=km Length=0.0408432 bus1=R1-12-47-4_node_146.3.1.2 bus2=R1-12-47-4_node_145.3.1.2 switch=n enabled=y phases=3 Linecode=3P_UG_Code3

New Line.R1-12-47-4_ul_151 Units=km Length=0.0341376 bus1=R1-12-47-4_node_7.1.2.3 bus2=R1-12-47-4_node_146.1.2.3 switch=n enabled=y phases=3 Linecode=3P_UG_Code3

New Line.R1-12-47-4_ul_152 Units=km Length=0.0344424 bus1=R1-12-47-4_node_56.2.1.3 bus2=R1-12-47-4_node_8.2.1.3 switch=n enabled=y phases=3 Linecode=3P_UG_Code3

New Line.R1-12-47-4_ul_153 Units=km Length=0.0100584 bus1=R1-12-47-4_node_6.3.1.2 bus2=R1-12-47-4_node_65.3.1.2 switch=n enabled=y phases=3 Linecode=3P_UG_Code3

New Line.R1-12-47-4_ul_158 Units=km Length=0.0347472 bus1=R1-12-47-4_node_108.1.2.3 bus2=R1-12-47-4_node_122.1.2.3 switch=n enabled=y phases=3 Linecode=3P_UG_Code3

New Line.R1-12-47-4_ul_159 Units=km Length=0.0463296 bus1=R1-12-47-4_node_121.2.1.3 bus2=R1-12-47-4_node_123.2.1.3 switch=n enabled=y phases=3 Linecode=3P_UG_Code0

New Line.R1-12-47-4_ul_231 Units=km Length=0.001 bus1=R1-12-47-4_node_162.3.1.2 bus2=R1-12-47-4_node_243.3.1.2 switch=n enabled=y phases=3 Linecode=3P_UG_Code3

New Line.R1-12-47-4_ul_38 Units=km Length=0.0301752 bus1=R1-12-47-4_node_39.3 bus2=R1-12-47-4_node_262.3 switch=n enabled=y phases=1 Linecode=1P_UG_Code4

New Line.R1-12-47-4_ul_39 Units=km Length=0.0155448 bus1=R1-12-47-4_node_40.3 bus2=R1-12-47-4_node_39.3 switch=n enabled=y phases=1 Linecode=1P_UG_Code4

New Line.R1-12-47-4_ul_34 Units=km Length=0.0637032 bus1=R1-12-47-4_node_34.3 bus2=R1-12-47-4_node_33.3 switch=n enabled=y phases=1 Linecode=1P_UG_Code4

New Line.R1-12-47-4_ul_35 Units=km Length=0.016764 bus1=R1-12-47-4_node_35.3 bus2=R1-12-47-4_node_34.3 switch=n enabled=y phases=1 Linecode=1P_UG_Code4

New Line.R1-12-47-4_ul_36 Units=km Length=0.0158496 bus1=R1-12-47-4_node_37.3 bus2=R1-12-47-4_node_36.3 switch=n enabled=y phases=1 Linecode=1P_UG_Code4

New Line.R1-12-47-4_ul_37 Units=km Length=0.0341376 bus1=R1-12-47-4_node_261.3 bus2=R1-12-47-4_node_37.3 switch=n enabled=y phases=1 Linecode=1P_UG_Code4

New Line.R1-12-47-4_ul_30 Units=km Length=0.0094488 bus1=R1-12-47-4_node_258.1 bus2=R1-12-47-4_node_26.1 switch=n enabled=y phases=1 Linecode=1P_UG_Code9

New Line.R1-12-47-4_ul_31 Units=km Length=0.1033272 bus1=R1-12-47-4_node_28.1 bus2=R1-12-47-4_node_259.1 switch=n enabled=y phases=1 Linecode=1P_UG_Code9

New Line.R1-12-47-4_ul_32 Units=km Length=0.0161544 bus1=R1-12-47-4_node_29.1 bus2=R1-12-47-4_node_28.1 switch=n enabled=y phases=1 Linecode=1P_UG_Code9

New Line.R1-12-47-4_ul_33 Units=km Length=0.0192024 bus1=R1-12-47-4_node_33.3 bus2=R1-12-47-4_node_32.3 switch=n enabled=y phases=1 Linecode=1P_UG_Code4

New Line.R1-12-47-4_ul_230 Units=km Length=0.001 bus1=R1-12-47-4_node_242.3.1.2 bus2=R1-12-47-4_node_162.3.1.2 switch=n enabled=y phases=3 Linecode=3P_UG_Code3

New Line.R1-12-47-4_ul_40 Units=km Length=0.0877824 bus1=R1-12-47-4_node_263.3 bus2=R1-12-47-4_node_40.3 switch=n enabled=y phases=1 Linecode=1P_UG_Code4

New Line.R1-12-47-4_ul_113 Units=km Length=0.0387096 bus1=R1-12-47-4_node_77.3.1.2 bus2=R1-12-47-4_node_60.3.1.2 switch=n enabled=y phases=3 Linecode=3P_UG_Code0

New Line.R1-12-47-4_ul_233 Units=km Length=0.001 bus1=R1-12-47-4_node_159.1.3.2 bus2=R1-12-47-4_node_241.1.3.2 switch=n enabled=y phases=3 Linecode=3P_UG_Code3

New Line.R1-12-47-4_ul_121 Units=km Length=0.001 bus1=R1-12-47-4_node_187.3.1.2 bus2=R1-12-47-4_node_91.3.1.2 switch=n enabled=y phases=3 Linecode=3P_UG_Code3

New Line.R1-12-47-4_ul_120 Units=km Length=0.001 bus1=R1-12-47-4_node_190.1.3.2 bus2=R1-12-47-4_node_93.1.3.2 switch=n enabled=y phases=3 Linecode=3P_UG_Code3

New Line.R1-12-47-4_ul_123 Units=km Length=0.001 bus1=R1-12-47-4_node_184.1.2.3 bus2=R1-12-47-4_node_84.1.2.3 switch=n enabled=y phases=3 Linecode=3P_UG_Code3

New Line.R1-12-47-4_ul_122 Units=km Length=0.001 bus1=R1-12-47-4_node_84.1.3.2 bus2=R1-12-47-4_node_183.1.3.2 switch=n enabled=y phases=3 Linecode=3P_UG_Code3

New Line.R1-12-47-4_ul_125 Units=km Length=0.001 bus1=R1-12-47-4_node_186.3.1.2 bus2=R1-12-47-4_node_87.3.1.2 switch=n enabled=y phases=3 Linecode=3P_UG_Code3

New Line.R1-12-47-4_ul_124 Units=km Length=0.001 bus1=R1-12-47-4_node_87.1.3.2 bus2=R1-12-47-4_node_185.1.3.2 switch=n enabled=y phases=3 Linecode=3P_UG_Code3
