New Linecode.3P_OH_Code0 units=km nphases=3 Rmatrix=(1e-05 0.0 0.0 | 0.0 1e-05 0.0 | 0.0 0.0 1e-05 ) Xmatrix=(1e-05 0.0 0.0 | 0.0 1e-05 0.0 | 0.0 0.0 1e-05 )

New Linecode.1P_OH_Code1 units=km nphases=1 Rmatrix=(1e-05 ) Xmatrix=(1e-05 )

New Linecode.2P_OH_Code2 units=km nphases=2 Rmatrix=(0.00802977061680122 0.004605150999561827 | 0.004605150999561827 0.00802977061680122 ) Xmatrix=(-0.20068035856103 -0.1171639974145548 | -0.1171639974145548 -0.20068035856103 )

New Linecode.3P_UG_Code3 units=km nphases=3 Rmatrix=(0.04205387952756768 0.028259404773941968 0.028259404773941968 | 0.028259404773941968 0.04205387952756768 0.028259404773941968 | 0.028259404773941968 0.028259404773941968 0.04205387952756768 ) Xmatrix=(0.7582375513997226 0.21194491273297997 0.21194491273297997 | 0.21194491273297997 0.7582375513997226 0.164949974626818 | 0.21194491273297997 0.164949974626818 0.7582375513997226 )

New Linecode.3P_UG_Code4 units=km nphases=3 Rmatrix=(0.08999395948682641 0.032907203425335346 0.032907203425335346 | 0.032907203425335346 0.08999395948682641 0.032907203425335346 | 0.032907203425335346 0.032907203425335346 0.08999395948682641 ) Xmatrix=(0.7572929364909721 0.21100029782422938 0.21100029782422938 | 0.21100029782422938 0.7572929364909721 0.16400535971806743 | 0.21100029782422938 0.16400535971806743 0.7572929364909721 )

New Linecode.3P_UG_Code5 units=km nphases=3 Rmatrix=(0.6214016856020925 0.07021921328424782 0.07021921328424782 | 0.07021921328424782 0.6214016856020925 0.07021921328424782 | 0.07021921328424782 0.07021921328424782 0.6214016856020925 ) Xmatrix=(0.865062143622861 0.22993088786863936 0.22993088786863936 | 0.22993088786863936 0.865062143622861 0.18293594976247737 | 0.22993088786863936 0.18293594976247737 0.865062143622861 )

New Linecode.1P_UG_Code6 units=km nphases=1 Rmatrix=(0.6214016856020925) Xmatrix=(0.865062143622861)

New Linecode.1P_UG_Code7 units=km nphases=1 Rmatrix=(0.6214016856020925 ) Xmatrix=(0.865062143622861 )

New Linecode.1P_UG_Code8 units=km nphases=1 Rmatrix=(0.08999395948682641 ) Xmatrix=(0.7572929364909721 )

New Linecode.1P_UG_Code9 units=km nphases=1 Rmatrix=(0.08999395948682641) Xmatrix=(0.7572929364909721)

