// PROJECT: 34 Bus Balanced - https://www.xendee.com/Studio/Launch/181be3e7-5423-4cf7-904c-5d9cb7876647
// STUDY: Power Flow Analysis study
// DATE GENERATED: Fri, 29 Jun 2018 02:43:58 GMT

// This script was auto-created by www.xendee.com for execution on OpenDSS version 7.6.5.13.
// Learn more about OpenDSS at http://smartgrid.epri.com/SimulationTool.aspx

Clear
Set DefaultBaseFrequency=60

// Source bus
New "Circuit.utility_01" phases=3 BasekV=69 pu=1 Angle=0 BaseMVA=100 MVAsc1=100 MVAsc3=1000 X1=0.001 R1=0 X0=0.001 R0=0

// Loads and motors
New "Load.DL_82034" Bus1="DL_82034.1.2.3.0" phases=3 Conn="wye" kV=24.9 kVA=114.09395973 Pf=0.894 VminPU=0.95 Model=2
New "Load.DL_858m" Bus1="DL_858m.1.2.3.0" phases=3 Conn="wye" kV=24.9 kVA=16.77852349 Pf=0.894 VminPU=0.95 Model=2
New "Load.DLoad_806m" Bus1="DLoad_806m.1.2.3.0" phases=3 Conn="wye" kV=24.9 kVA=90.60402685 Pf=0.894 VminPU=0.95 Model=1
New "Load.DLoad_810" Bus1="DLoad_810.1.2.3.0" phases=3 Conn="wye" kV=24.9 kVA=26.84563758 Pf=0.894 VminPU=0.95 Model=5
New "Load.DLoad_810m" Bus1="DLoad_810m.1.2.3.0" phases=3 Conn="wye" kV=24.9 kVA=26.84563758 Pf=0.894 VminPU=0.95 Model=5
New "Load.DLoad_822" Bus1="DLoad_822.1.2.3.0" phases=3 Conn="wye" kV=24.9 kVA=228.29763247 Pf=0.887 VminPU=0.95 Model=1
New "Load.DLoad_822m" Bus1="DLoad_822m.1.2.3.0" phases=3 Conn="wye" kV=24.9 kVA=228.29763247 Pf=0.887 VminPU=0.95 Model=1
New "Load.DLoad_824" Bus1="DLoad_824.1.2.3.0" phases=3 Conn="wye" kV=24.9 kVA=16.1637931 Pf=0.928 VminPU=0.95 Model=5
New "Load.DLoad_826" Bus1="DLoad_826.1.2.3.0" phases=3 Conn="wye" kV=24.9 kVA=67.11409396 Pf=0.894 VminPU=0.95 Model=5
New "Load.DLoad_826m" Bus1="DLoad_826m.1.2.3.0" phases=3 Conn="wye" kV=24.9 kVA=67.11409396 Pf=0.894 VminPU=0.95 Model=5
New "Load.DLoad_828" Bus1="DLoad_828.1.2.3.0" phases=3 Conn="wye" kV=24.9 kVA=13.42281879 Pf=0.894 VminPU=0.95 Model=1
New "Load.DLoad_830" Bus1="DLoad_830.1.2.3.0" phases=3 Conn="wye" kV=24.9 kVA=50.90497738 Pf=0.884 VminPU=0.95 Model=2
New "Load.DLoad_830m" Bus1="DLoad_830m.1.2.3.0" phases=3 Conn="wye" kV=24.9 kVA=22.85092492 Pf=0.919 VminPU=0.95 Model=1
New "Load.DLoad_834" Bus1="DLoad_834.1.2.3.0" phases=3 Conn="wye" kV=24.9 kVA=36.28117914 Pf=0.882 VminPU=0.95 Model=1
New "Load.DLoad_836" Bus1="DLoad_836.1.2.3.0" phases=3 Conn="wye" kV=24.9 kVA=91.72259508 Pf=0.894 VminPU=0.95 Model=1
New "Load.DLoad_838" Bus1="DLoad_838.1.2.3.0" phases=3 Conn="wye" kV=24.9 kVA=46.97986577 Pf=0.894 VminPU=0.95 Model=1
New "Load.DLoad_838m" Bus1="DLoad_838m.1.2.3.0" phases=3 Conn="wye" kV=24.9 kVA=46.97986577 Pf=0.894 VminPU=0.95 Model=1
New "Load.DLoad_840" Bus1="DLoad_840.1.2.3.0" phases=3 Conn="wye" kV=24.9 kVA=67.11409396 Pf=0.894 VminPU=0.95 Model=5
New "Load.DLoad_844" Bus1="DLoad_844.1.2.3.0" phases=3 Conn="wye" kV=24.9 kVA=30.89244851 Pf=0.874 VminPU=0.95 Model=1
New "Load.DLoad_846" Bus1="DLoad_846.1.2.3.0" phases=3 Conn="wye" kV=24.9 kVA=73.25194229 Pf=0.901 VminPU=0.95 Model=1
New "Load.DLoad_848" Bus1="DLoad_848.1.2.3.0" phases=3 Conn="wye" kV=24.9 kVA=76.49667406 Pf=0.902 VminPU=0.95 Model=1
New "Load.DLoad_856" Bus1="DLoad_856.1.2.3.0" phases=3 Conn="wye" kV=24.9 kVA=6.7114094 Pf=0.894 VminPU=0.95 Model=1
New "Load.DLoad_856m" Bus1="DLoad_856m.1.2.3.0" phases=3 Conn="wye" kV=24.9 kVA=6.7114094 Pf=0.894 VminPU=0.95 Model=1
New "Load.DLoad_860" Bus1="DLoad_860.1.2.3.0" phases=3 Conn="wye" kV=24.9 kVA=163.31096197 Pf=0.894 VminPU=0.95 Model=2
New "Load.DLoad_864" Bus1="DLoad_864.1.2.3.0" phases=3 Conn="wye" kV=24.9 kVA=3.3557047 Pf=0.894 VminPU=0.95 Model=1
New "Load.DLoad_864m" Bus1="DLoad_864m.1.2.3.0" phases=3 Conn="wye" kV=24.9 kVA=3.3557047 Pf=0.894 VminPU=0.95 Model=1
New "Load.SLoad_840" Bus1="SLoad_840.1.2.3.0" phases=3 Conn="wye" kV=24.9 kVA=34.22053232 Pf=0.789 VminPU=0.95 Model=5
New "Load.SLoad_844" Bus1="SLoad_844.1.2.3.0" phases=3 Conn="wye" kV=24.9 kVA=513.30798479 Pf=0.789 VminPU=0.95 Model=2
New "Load.SLoad_848" Bus1="SLoad_848.1.2.3.0" phases=3 Conn="wye" kV=24.9 kVA=76.82458387 Pf=0.781 VminPU=0.95 Model=1
New "Load.SLoad_860" Bus1="SLoad_860.1.2.3.0" phases=3 Conn="wye" kV=24.9 kVA=76.82458387 Pf=0.781 VminPU=0.95 Model=1
New "Load.SLoad_890" Bus1="SLoad_890.1.2.3.0" phases=3 Conn="wye" kV=4.16 kVA=503.3557047 Pf=0.894 VminPU=0.95 Model=5

// Capacitors
New "Capacitor.cap_844" Bus1="cap_844.1.2.3" Bus2="cap_844.0.0.0" phases=3 Conn="wye" kV=24.9 kVAR=300
New "Capacitor.cap_848" Bus1="cap_848.1.2.3" Bus2="cap_848.0.0.0" phases=3 Conn="wye" kV=24.9 kVAR=450

// Linecodes
New "Linecode.LC-custom_af93aa80-b704-40d5-8e5e-2187ceb432f3" nphases=3 R1=0.2514 X1=0.2544 R0=0.2514 X0=0.2544 Units="kft" Normamps=260
New "Linecode.LC-custom_b372b8c8-8394-4e85-bc54-d4a723a0a391" nphases=3 R1=0.2514 X1=0.2544 R0=0.2514 X0=0.2544 Units="kft" Normamps=225
New "Linecode.LC-custom_d29570c2-fc72-4c01-acfc-dcf15b70f76c" nphases=3 R1=0.2514 X1=0.2544 R0=0.2514 X0=0.2544 Units="kft" Normamps=150
New "Linecode.LC-custom_ca2b2d41-a9a0-4c50-95a2-874151d2256b" nphases=3 R1=0.2514 X1=0.2544 R0=0.2514 X0=0.2544 Units="kft" Normamps=150
New "Linecode.LC-custom_db89399c-6ab8-4839-9351-8d28fe2f3ac4" nphases=3 R1=0.176 X1=0.094 R0=0.176 X0=0.094 Units="kft" Normamps=150
New "Linecode.LC-custom_7d6a38e9-4100-462b-97d6-91199bc66783" nphases=3 R1=0.2514 X1=0.2544 R0=0.2514 X0=0.2544 Units="kft" Normamps=150
New "Linecode.LC-custom_bbbec3f7-f049-4fc7-8c6c-fa79091056ba" nphases=3 R1=0.176 X1=0.094 R0=0.176 X0=0.094 Units="kft" Normamps=150
New "Linecode.LC-custom_136883b0-1688-43d2-850d-5ddc87643ff8" nphases=3 R1=0.2514 X1=0.2544 R0=0.2514 X0=0.2544 Units="kft" Normamps=150
New "Linecode.LC-custom_04128ff6-d68a-4b0e-8db0-9702d8004bf4" nphases=3 R1=0.363 X1=0.268 R0=0.363 X0=0.268 Units="kft" Normamps=150
New "Linecode.LC-custom_e0616684-e8b5-4ac3-b06e-d469ef1bf892" nphases=3 R1=0.176 X1=0.094 R0=0.1476 X0=0.094 Units="kft" Normamps=150
New "Linecode.LC-custom_083e025f-7779-410b-aeb7-655bd9bfacc6" nphases=3 R1=0.363 X1=0.268 R0=0.363 X0=0.268 Units="kft" Normamps=150
New "Linecode.LC-custom_967b51f7-987c-43b4-be81-723b7c133f1e" nphases=3 R1=0.176 X1=0.094 R0=0.176 X0=0.094 Units="kft" Normamps=150
New "Linecode.LC-custom_ba221c0d-211e-43bc-99ba-816836032712" nphases=3 R1=0.176 X1=0.094 R0=0.176 X0=0.094 Units="kft" Normamps=150
New "Linecode.LC-custom_6bcf6c26-c801-45bd-8874-29bbfa59d0f8" nphases=3 R1=0.176 X1=0.094 R0=0.176 X0=0.094 Units="kft" Normamps=150
New "Linecode.LC-custom_26979f72-d466-4d6e-b529-239f847eacf8" nphases=3 R1=0.176 X1=0.094 R0=0.176 X0=0.094 Units="kft" Normamps=150
New "Linecode.LC-custom_3e94aec1-244a-4002-8f4c-aeb72f955a22" nphases=3 R1=0.176 X1=0.094 R0=0.176 X0=0.094 Units="kft" Normamps=150
New "Linecode.LC-custom_cec28346-c57c-40a8-90d1-70e6a78edbe1" nphases=3 R1=0.2514 X1=0.2544 R0=0.2514 X0=0.2544 Units="kft" Normamps=150
New "Linecode.LC-custom_05c58b3f-ea3a-4afa-a54d-9c7837d4c0cf" nphases=3 R1=0.363 X1=0.268 R0=0.363 X0=0.268 Units="kft" Normamps=150
New "Linecode.LC-custom_3c391cec-e562-4b01-85cc-855808096c1d" nphases=3 R1=0.176 X1=0.094 R0=0.176 X0=0.094 Units="kft" Normamps=225
New "Linecode.LC-custom_44ef3e55-d60f-4d58-b04a-c0b38239e677" nphases=3 R1=0.363 X1=0.268 R0=0.363 X0=0.268 Units="kft" Normamps=150
New "Linecode.LC-custom_addd43c4-7290-4a0b-aedd-dcfad18e20df" nphases=3 R1=0.2514 X1=0.2544 R0=0.2514 X0=0.2544 Units="kft" Normamps=150
New "Linecode.LC-custom_eab891c0-db16-4d2a-a3db-3e50eb620d5a" nphases=3 R1=0.363 X1=0.268 R0=0.363 X0=0.268 Units="kft" Normamps=150
New "Linecode.LC-custom_da46f904-a6b7-4301-be96-bf662c28c831" nphases=3 R1=0.363 X1=0.268 R0=0.363 X0=0.268 Units="kft" Normamps=150
New "Linecode.LC-custom_b4e1bcd6-c0c5-4d1c-90e6-f38ad18f143f" nphases=3 R1=0.363 X1=0.268 R0=0.363 X0=0.268 Units="kft" Normamps=150
New "Linecode.LC-custom_07fce423-3fd5-4578-8f5e-30db43786181" nphases=3 R1=0.363 X1=0.268 R0=0.363 X0=0.268 Units="kft" Normamps=150
New "Linecode.LC-custom_c7699bd2-50d7-43d9-8728-712738e727b5" nphases=3 R1=0.363 X1=0.268 R0=0.363 X0=0.268 Units="kft" Normamps=150
New "Linecode.LC-custom_7e0d0678-7425-4616-8f26-479d2906839e" nphases=3 R1=0.363 X1=0.268 R0=0.363 X0=0.268 Units="kft" Normamps=150
New "Linecode.LC-custom_43f21846-81c9-48f3-aeac-8bbc3d0248f9" nphases=3 R1=0.363 X1=0.268 R0=0.363 X0=0.268 Units="kft" Normamps=150
New "Linecode.LC-custom_1df45671-1fa8-42ac-87d8-a32b29371169" nphases=3 R1=0.363 X1=0.268 R0=0.363 X0=0.268 Units="kft" Normamps=150
New "Linecode.LC-custom_0870a2ed-b925-47d8-bf9e-c99a7e3e643c" nphases=3 R1=0.363 X1=0.268 R0=0.363 X0=0.268 Units="kft" Normamps=150
New "Linecode.LC-custom_746bfcba-dc6a-4044-b28c-8bf68b748473" nphases=3 R1=0.641 X1=0.4737 R0=0.641 X0=0.4737 Units="kft" Normamps=150
New "Linecode.LC-custom_6e0f2f9e-839a-4172-bc95-da621c1e8691" nphases=3 R1=0.363 X1=0.268 R0=0.363 X0=0.268 Units="kft" Normamps=150
New "Linecode.LC-custom_e0388263-9b93-4834-9bcb-bceb86db83d9" nphases=3 R1=0.363 X1=0.268 R0=0.363 X0=0.268 Units="kft" Normamps=150
New "Linecode.LC-custom_5fd8c75e-4772-4fc6-874d-035123dd46cc" nphases=3 R1=0.363 X1=0.268 R0=0.363 X0=0.268 Units="kft" Normamps=150
New "Linecode.LC-custom_695f14bc-eb5b-4e1c-b3bd-dd6a59405891" nphases=3 R1=0.363 X1=0.268 R0=0.363 X0=0.268 Units="kft" Normamps=150
New "Linecode.LC-custom_be53dd86-7f13-48b6-bff6-55ceffa49a64" nphases=3 R1=0.363 X1=0.268 R0=0.363 X0=0.268 Units="kft" Normamps=150
New "Linecode.LC-custom_a6ffa153-7123-4bc2-b579-b5d92910ee78" nphases=3 R1=0.363 X1=0.268 R0=0.363 X0=0.268 Units="kft" Normamps=150
New "Linecode.LC-custom_57c88297-b7ff-4c3d-ad5a-95f90e552f42" nphases=3 R1=0.363 X1=0.268 R0=0.363 X0=0.268 Units="kft" Normamps=150
New "Linecode.LC-custom_b42cb6af-c7fa-489d-98fd-959d8b08c999" nphases=3 R1=0.363 X1=0.268 R0=0.363 X0=0.268 Units="kft" Normamps=150
New "Linecode.LC-custom_d41c3be3-cc16-4326-802b-b1dc0c34fd45" nphases=3 R1=0.363 X1=0.268 R0=0.363 X0=0.268 Units="kft" Normamps=150
New "Linecode.LC-custom_e4cb7064-6ff6-4f51-9ed3-5d5eae02cbb5" nphases=3 R1=0.176 X1=0.094 R0=0.176 X0=0.094 Units="kft" Normamps=150
New "Linecode.LC-custom_ccf4be60-a1f3-4fde-b429-52800ecd7375" nphases=3 R1=0.176 X1=0.094 R0=0.176 X0=0.094 Units="kft" Normamps=150
New "Linecode.LC-custom_c4c5b062-4a33-4249-9ee2-896551d1e146" nphases=3 R1=0.363 X1=0.268 R0=0.363 X0=0.268 Units="kft" Normamps=150
New "Linecode.LC-custom_4644909d-76e3-48d0-94ec-3f32b113eff1" nphases=3 R1=0.176 X1=0.094 R0=0.176 X0=0.094 Units="kft" Normamps=150
New "Linecode.LC-custom_f8ee7242-84f6-4b00-bb30-bc1ac00a276d" nphases=3 R1=0.363 X1=0.268 R0=0.363 X0=0.268 Units="kft" Normamps=150
New "Linecode.LC-custom_57a5f07d-cb4d-4781-9ed8-dbfdedcfdd05" nphases=3 R1=0.363 X1=0.268 R0=0.363 X0=0.268 Units="kft" Normamps=150
New "Linecode.LC-custom_01ab15b4-4d4b-4410-aa01-ee482b108b59" nphases=3 R1=0.363 X1=0.268 R0=0.363 X0=0.268 Units="kft" Normamps=150
New "Linecode.LC-custom_a84f65e6-5e60-433b-a75d-6cfe50ead79a" nphases=3 R1=0.641 X1=0.4737 R0=0.641 X0=0.4737 Units="kft" Normamps=150
New "Linecode.LC-custom_6ec3dc4b-2193-4a90-bf6e-9f9a8c9e1f79" nphases=3 R1=0.176 X1=0.094 R0=0.176 X0=0.094 Units="kft" Normamps=150
New "Linecode.LC-custom_e434e009-faaa-40a2-9dd3-d5d0dc96d463" nphases=3 R1=0.2514 X1=0.2544 R0=0.2514 X0=0.2544 Units="kft" Normamps=150

// Lines, Automatic Transfer Switches (ATS) and Direct Connections
New "Line.C_Load860" Bus1="bus_860.1.2.3" Bus2="SLoad_860.1.2.3" phases=3 Switch=True
New "Line.conn 01" Bus1="bus_840.1.2.3" Bus2="SLoad_840.1.2.3" phases=3 Switch=True
New "Line.conn 02" Bus1="bus_844.1.2.3" Bus2="SLoad_844.1.2.3" phases=3 Switch=True
New "Line.conn 03" Bus1="bus_848.1.2.3" Bus2="SLoad_848.1.2.3" phases=3 Switch=True
New "Line.conn 04" Bus1="bus_890.1.2.3" Bus2="SLoad_890.1.2.3" phases=3 Switch=True
New "Line.conn 05" Bus1="bus_820m.1.2.3" Bus2="DL_82034.1.2.3" phases=3 Switch=True
New "Line.conn 06" Bus1="bus_822.1.2.3" Bus2="DLoad_822.1.2.3" phases=3 Switch=True
New "Line.conn 07" Bus1="bus_822m.1.2.3" Bus2="DLoad_822m.1.2.3" phases=3 Switch=True
New "Line.conn 08" Bus1="bus_830m.1.2.3" Bus2="DLoad_830m.1.2.3" phases=3 Switch=True
New "Line.conn 09" Bus1="bus_858m.1.2.3" Bus2="DL_858m.1.2.3" phases=3 Switch=True
New "Line.conn 10" Bus1="bus_864.1.2.3" Bus2="DLoad_864.1.2.3" phases=3 Switch=True
New "Line.conn 11" Bus1="bus_864m.1.2.3" Bus2="DLoad_864m.1.2.3" phases=3 Switch=True
New "Line.conn 12" Bus1="bus_834m.1.2.3" Bus2="DLoad_834.1.2.3" phases=3 Switch=True
New "Line.conn 13" Bus1="bus_860m.1.2.3" Bus2="DLoad_860.1.2.3" phases=3 Switch=True
New "Line.conn 14" Bus1="bus_836m.1.2.3" Bus2="DLoad_836.1.2.3" phases=3 Switch=True
New "Line.conn 15" Bus1="bus_840m.1.2.3" Bus2="DLoad_840.1.2.3" phases=3 Switch=True
New "Line.conn 16" Bus1="bus_844m.1.2.3" Bus2="DLoad_844.1.2.3" phases=3 Switch=True
New "Line.conn 17" Bus1="bus_806m.1.2.3" Bus2="DLoad_806m.1.2.3" phases=3 Switch=True
New "Line.conn 18" Bus1="bus_810.1.2.3" Bus2="DLoad_810.1.2.3" phases=3 Switch=True
New "Line.conn 19" Bus1="bus_810m.1.2.3" Bus2="DLoad_810m.1.2.3" phases=3 Switch=True
New "Line.conn 20" Bus1="bus_824m.1.2.3" Bus2="DLoad_824.1.2.3" phases=3 Switch=True
New "Line.conn 21" Bus1="bus_826m.1.2.3" Bus2="DLoad_826m.1.2.3" phases=3 Switch=True
New "Line.conn 22" Bus1="bus_826.1.2.3" Bus2="DLoad_826.1.2.3" phases=3 Switch=True
New "Line.conn 23" Bus1="bus_856.1.2.3" Bus2="DLoad_856.1.2.3" phases=3 Switch=True
New "Line.conn 24" Bus1="bus_856m.1.2.3" Bus2="DLoad_856m.1.2.3" phases=3 Switch=True
New "Line.conn 25" Bus1="bus_838.1.2.3" Bus2="DLoad_838.1.2.3" phases=3 Switch=True
New "Line.conn 26" Bus1="bus_838m.1.2.3" Bus2="DLoad_838m.1.2.3" phases=3 Switch=True
New "Line.conn 27" Bus1="bus_846m.1.2.3" Bus2="DLoad_846.1.2.3" phases=3 Switch=True
New "Line.conn 28" Bus1="bus_848m.1.2.3" Bus2="DLoad_848.1.2.3" phases=3 Switch=True
New "Line.conn 29" Bus1="bus_828m.1.2.3" Bus2="DLoad_828.1.2.3" phases=3 Switch=True
New "Line.conn 30" Bus1="bus_830m.1.2.3" Bus2="DLoad_830.1.2.3" phases=3 Switch=True
New "Line.conn 31" Bus1="bus_844.1.2.3" Bus2="cap_844.1.2.3" phases=3 Switch=True
New "Line.conn 32" Bus1="bus_848.1.2.3" Bus2="cap_848.1.2.3" phases=3 Switch=True
New "Line.L_800_802" Bus1="bus_800.1.2.3" Bus2="bus_802.1.2.3" LineCode="LC-custom_af93aa80-b704-40d5-8e5e-2187ceb432f3" Length=2580 Units="ft"
New "Line.L_802_806m" Bus1="bus_802.1.2.3" Bus2="bus_806m.1.2.3" LineCode="LC-custom_b372b8c8-8394-4e85-bc54-d4a723a0a391" Length=865 Units="ft"
New "Line.L_806_808" Bus1="bus_806.1.2.3" Bus2="bus_808.1.2.3" LineCode="LC-custom_d29570c2-fc72-4c01-acfc-dcf15b70f76c" Length=32230 Units="ft"
New "Line.L_806m_806" Bus1="bus_806m.1.2.3" Bus2="bus_806.1.2.3" LineCode="LC-custom_ca2b2d41-a9a0-4c50-95a2-874151d2256b" Length=865 Units="ft"
New "Line.L_808_810m" Bus1="bus_808.1.2.3" Bus2="bus_810m.1.2.3" LineCode="LC-custom_db89399c-6ab8-4839-9351-8d28fe2f3ac4" Length=2902 Units="ft"
New "Line.L_808_812" Bus1="bus_808.1.2.3" Bus2="bus_812.1.2.3" LineCode="LC-custom_7d6a38e9-4100-462b-97d6-91199bc66783" Length=37500 Units="ft"
New "Line.L_810m_810" Bus1="bus_810m.1.2.3" Bus2="bus_810.1.2.3" LineCode="LC-custom_bbbec3f7-f049-4fc7-8c6c-fa79091056ba" Length=2902 Units="ft"
New "Line.L_812_814" Bus1="bus_812.1.2.3" Bus2="bus_814.1.2.3" LineCode="LC-custom_136883b0-1688-43d2-850d-5ddc87643ff8" Length=29730 Units="ft"
New "Line.L_814_850" Bus1="bus_814.1.2.3" Bus2="bus_850.1.2.3" LineCode="LC-custom_04128ff6-d68a-4b0e-8db0-9702d8004bf4" Length=10 Units="ft"
New "Line.L_816_818" Bus1="bus_816.1.2.3" Bus2="bus_818.1.2.3" LineCode="LC-custom_e0616684-e8b5-4ac3-b06e-d469ef1bf892" Length=1710 Units="ft"
New "Line.L_816_824m" Bus1="bus_816.1.2.3" Bus2="bus_824m.1.2.3" LineCode="LC-custom_083e025f-7779-410b-aeb7-655bd9bfacc6" Length=5105 Units="ft"
New "Line.L_818_820m" Bus1="bus_818.1.2.3" Bus2="bus_820m.1.2.3" LineCode="LC-custom_967b51f7-987c-43b4-be81-723b7c133f1e" Length=24075 Units="ft"
New "Line.L_820_822m" Bus1="bus_820.1.2.3" Bus2="bus_822m.1.2.3" LineCode="LC-custom_ba221c0d-211e-43bc-99ba-816836032712" Length=6870 Units="ft"
New "Line.L_820m_820" Bus1="bus_820m.1.2.3" Bus2="bus_820.1.2.3" LineCode="LC-custom_6bcf6c26-c801-45bd-8874-29bbfa59d0f8" Length=24075 Units="ft"
New "Line.L_822m_822" Bus1="bus_822m.1.2.3" Bus2="bus_822.1.2.3" LineCode="LC-custom_26979f72-d466-4d6e-b529-239f847eacf8" Length=6870 Units="ft"
New "Line.L_824_826m" Bus1="bus_824.1.2.3" Bus2="bus_826m.1.2.3" LineCode="LC-custom_3e94aec1-244a-4002-8f4c-aeb72f955a22" Length=1515 Units="ft"
New "Line.L_824_828m" Bus1="bus_824.1.2.3" Bus2="bus_828m.1.2.3" LineCode="LC-custom_cec28346-c57c-40a8-90d1-70e6a78edbe1" Length=420 Units="ft"
New "Line.L_824m_824" Bus1="bus_824m.1.2.3" Bus2="bus_824.1.2.3" LineCode="LC-custom_05c58b3f-ea3a-4afa-a54d-9c7837d4c0cf" Length=5105 Units="ft"
New "Line.L_826m_826" Bus1="bus_826m.1.2.3" Bus2="bus_826.1.2.3" LineCode="LC-custom_3c391cec-e562-4b01-85cc-855808096c1d" Length=1515 Units="ft"
New "Line.L_828_830m" Bus1="bus_828.1.2.3" Bus2="bus_830m.1.2.3" LineCode="LC-custom_44ef3e55-d60f-4d58-b04a-c0b38239e677" Length=10220 Units="ft"
New "Line.L_828m_828" Bus1="bus_828m.1.2.3" Bus2="bus_828.1.2.3" LineCode="LC-custom_addd43c4-7290-4a0b-aedd-dcfad18e20df" Length=420 Units="ft"
New "Line.L_830_854" Bus1="bus_830.1.2.3" Bus2="bus_854.1.2.3" LineCode="LC-custom_eab891c0-db16-4d2a-a3db-3e50eb620d5a" Length=520 Units="ft"
New "Line.L_830m_830" Bus1="bus_830m.1.2.3" Bus2="bus_830.1.2.3" LineCode="LC-custom_da46f904-a6b7-4301-be96-bf662c28c831" Length=10220 Units="ft"
New "Line.L_832_858m" Bus1="bus_832.1.2.3" Bus2="bus_858m.1.2.3" LineCode="LC-custom_b4e1bcd6-c0c5-4d1c-90e6-f38ad18f143f" Length=2450 Units="ft"
New "Line.L_834_842" Bus1="bus_834.1.2.3" Bus2="bus_842.1.2.3" LineCode="LC-custom_07fce423-3fd5-4578-8f5e-30db43786181" Length=280 Units="ft"
New "Line.L_834_860M" Bus1="bus_834.1.2.3" Bus2="bus_860m.1.2.3" LineCode="LC-custom_c7699bd2-50d7-43d9-8728-712738e727b5" Length=1010 Units="ft"
New "Line.L_834m_834" Bus1="bus_834m.1.2.3" Bus2="bus_834.1.2.3" LineCode="LC-custom_7e0d0678-7425-4616-8f26-479d2906839e" Length=2915 Units="ft"
New "Line.L_836_840m" Bus1="bus_836.1.2.3" Bus2="bus_840m.1.2.3" LineCode="LC-custom_43f21846-81c9-48f3-aeac-8bbc3d0248f9" Length=430 Units="ft"
New "Line.L_836_862" Bus1="bus_836.1.2.3" Bus2="bus_862.1.2.3" LineCode="LC-custom_1df45671-1fa8-42ac-87d8-a32b29371169" Length=280 Units="ft"
New "Line.L_836m_836" Bus1="bus_836m.1.2.3" Bus2="bus_836.1.2.3" LineCode="LC-custom_0870a2ed-b925-47d8-bf9e-c99a7e3e643c" Length=1340 Units="ft"
New "Line.L_838m_838" Bus1="bus_838m.1.2.3" Bus2="bus_838.1.2.3" LineCode="LC-custom_746bfcba-dc6a-4044-b28c-8bf68b748473" Length=2430 Units="ft"
New "Line.L_840m_840" Bus1="bus_840m.1.2.3" Bus2="bus_840.1.2.3" LineCode="LC-custom_6e0f2f9e-839a-4172-bc95-da621c1e8691" Length=430 Units="ft"
New "Line.L_842_844m" Bus1="bus_842.1.2.3" Bus2="bus_844m.1.2.3" LineCode="LC-custom_e0388263-9b93-4834-9bcb-bceb86db83d9" Length=675 Units="ft"
New "Line.L_844_846m" Bus1="bus_844.1.2.3" Bus2="bus_846m.1.2.3" LineCode="LC-custom_5fd8c75e-4772-4fc6-874d-035123dd46cc" Length=1820 Units="ft"
New "Line.L_844m_844" Bus1="bus_844m.1.2.3" Bus2="bus_844.1.2.3" LineCode="LC-custom_695f14bc-eb5b-4e1c-b3bd-dd6a59405891" Length=675 Units="ft"
New "Line.L_846_848m" Bus1="bus_846.1.2.3" Bus2="bus_848m.1.2.3" LineCode="LC-custom_be53dd86-7f13-48b6-bff6-55ceffa49a64" Length=265 Units="ft"
New "Line.L_846m_846" Bus1="bus_846m.1.2.3" Bus2="bus_846.1.2.3" LineCode="LC-custom_a6ffa153-7123-4bc2-b579-b5d92910ee78" Length=1820 Units="ft"
New "Line.L_848m_848" Bus1="bus_848m.1.2.3" Bus2="bus_848.1.2.3" LineCode="LC-custom_57c88297-b7ff-4c3d-ad5a-95f90e552f42" Length=265 Units="ft"
New "Line.L_850_816" Bus1="bus_850.1.2.3" Bus2="bus_816.1.2.3" LineCode="LC-custom_b42cb6af-c7fa-489d-98fd-959d8b08c999" Length=310 Units="ft"
New "Line.L_854_852" Bus1="bus_854.1.2.3" Bus2="bus_852.1.2.3" LineCode="LC-custom_d41c3be3-cc16-4326-802b-b1dc0c34fd45" Length=10 Units="ft"
New "Line.L_854_856m" Bus1="bus_854.1.2.3" Bus2="bus_856m.1.2.3" LineCode="LC-custom_e4cb7064-6ff6-4f51-9ed3-5d5eae02cbb5" Length=11665 Units="ft"
New "Line.L_856m_856" Bus1="bus_856m.1.2.3" Bus2="bus_856.1.2.3" LineCode="LC-custom_ccf4be60-a1f3-4fde-b429-52800ecd7375" Length=11665 Units="ft"
New "Line.L_858_834m" Bus1="bus_858.1.2.3" Bus2="bus_834m.1.2.3" LineCode="LC-custom_c4c5b062-4a33-4249-9ee2-896551d1e146" Length=2915 Units="ft"
New "Line.L_858_864m" Bus1="bus_858.1.2.3" Bus2="bus_864m.1.2.3" LineCode="LC-custom_4644909d-76e3-48d0-94ec-3f32b113eff1" Length=810 Units="ft"
New "Line.L_858m_858" Bus1="bus_858m.1.2.3" Bus2="bus_858.1.2.3" LineCode="LC-custom_f8ee7242-84f6-4b00-bb30-bc1ac00a276d" Length=2450 Units="ft"
New "Line.L_860_836m" Bus1="bus_860.1.2.3" Bus2="bus_836m.1.2.3" LineCode="LC-custom_57a5f07d-cb4d-4781-9ed8-dbfdedcfdd05" Length=1340 Units="ft"
New "Line.L_860m_860" Bus1="bus_860m.1.2.3" Bus2="bus_860.1.2.3" LineCode="LC-custom_01ab15b4-4d4b-4410-aa01-ee482b108b59" Length=1010 Units="ft"
New "Line.L_862_838m" Bus1="bus_862.1.2.3" Bus2="bus_838m.1.2.3" LineCode="LC-custom_a84f65e6-5e60-433b-a75d-6cfe50ead79a" Length=2430 Units="ft"
New "Line.L_864m_864" Bus1="bus_864m.1.2.3" Bus2="bus_864.1.2.3" LineCode="LC-custom_6ec3dc4b-2193-4a90-bf6e-9f9a8c9e1f79" Length=810 Units="ft"
New "Line.L_888_890" Bus1="bus_888.1.2.3" Bus2="bus_890.1.2.3" LineCode="LC-custom_e434e009-faaa-40a2-9dd3-d5d0dc96d463" Length=10560 Units="ft"

// Transformers
New "Transformer.Subt_01" phases=3 Windings=2 XHL=7.99974424 %LoadLoss=0.99996803
~ wdg=1 Bus="sourcebus.1.2.3" kV=69 kVA=2500 Conn="delta"
~ wdg=2 Bus="bus_800.1.2.3.0" kV=24.9 kVA=2500 Conn="wye" MinTap=0.9 MaxTap=1.1 NumTaps=32 Tap=1
New "Transformer.t 01" phases=3 Windings=2 XHL=5.63833889 %LoadLoss=1.12766778
~ wdg=1 Bus="bus_852.1.2.3.0" kV=24.9 kVA=10000 Conn="wye"
~ wdg=2 Bus="bus_832.1.2.3.0" kV=24.9 kVA=10000 Conn="wye" MinTap=0.9 MaxTap=1.1 NumTaps=32 Tap=1
New "Transformer.tr_832_888" phases=3 Windings=2 XHL=4.07923065 %LoadLoss=1.8999677
~ wdg=1 Bus="bus_832.1.2.3.0" kV=24.9 kVA=500 Conn="wye"
~ wdg=2 Bus="bus_888.1.2.3.0" kV=4.16 kVA=500 Conn="wye" MinTap=0.9 MaxTap=1.1 NumTaps=32 Tap=1

// Voltage bases
Set VoltageBases=[69 4.16 24.9]
CalcVoltageBases

// Solve study
Solve BaseFrequency=60 MaxIter=300 MaxControlIter=10000

// Set bus (x,y) coordinates
SetBusXY Bus="bus_890" X=3809 Y=-8258.5
SetBusXY Bus="DLoad_856m" X=4361 Y=-6793.5
SetBusXY Bus="bus_860m" X=2393 Y=-8994.5
SetBusXY Bus="bus_814" X=2946 Y=-2800.5
SetBusXY Bus="bus_846m" X=239 Y=-10131.5
SetBusXY Bus="bus_808" X=3122 Y=-2108.5
SetBusXY Bus="bus_824m" X=5149 Y=-3871.5
SetBusXY Bus="DL_82034" X=3222 Y=-4607.5
SetBusXY Bus="sourcebus" X=3298 Y=-31.5
SetBusXY Bus="DLoad_822m" X=3222 Y=-5365.5
SetBusXY Bus="bus_858" X=1592 Y=-7901.5
SetBusXY Bus="bus_822" X=2946 Y=-5365.5
SetBusXY Bus="bus_818" X=2946 Y=-3871.5
SetBusXY Bus="bus_802" X=3298 Y=-1059.5
SetBusXY Bus="bus_826m" X=4796.5 Y=-4607.5
SetBusXY Bus="bus_806m" X=3436 Y=-1394.5
SetBusXY Bus="bus_840" X=1979 Y=-10889.5
SetBusXY Bus="bus_856" X=4085 Y=-6793.5
SetBusXY Bus="cap_844" X=1027 Y=-10131.5
SetBusXY Bus="bus_820" X=2946 Y=-4607.5
SetBusXY Bus="DLoad_838m" X=1627 Y=-11268.5
SetBusXY Bus="SLoad_840" X=1979 Y=-11268.5
SetBusXY Bus="bus_852" X=3083 Y=-6436.5
SetBusXY Bus="bus_864" X=3083 Y=-8615.5
SetBusXY Bus="bus_810m" X=3436 Y=-2443.5
SetBusXY Bus="bus_828m" X=3878.5 Y=-4607.5
SetBusXY Bus="SLoad_890" X=3809 Y=-8615.5
SetBusXY Bus="bus_848m" X=407.5 Y=-10889.5
SetBusXY Bus="DLoad_822" X=2946 Y=-5744.5
SetBusXY Bus="bus_840m" X=2117 Y=-10510.5
SetBusXY Bus="DLoad_846" X=377 Y=-10510.5
SetBusXY Bus="bus_888" X=3809 Y=-7901.5
SetBusXY Bus="DLoad_810" X=3298 Y=-3179.5
SetBusXY Bus="bus_854" X=3584 Y=-6101.5
SetBusXY Bus="bus_834m" X=1178 Y=-8258.5
SetBusXY Bus="DLoad_810m" X=3574 Y=-2800.5
SetBusXY Bus="bus_864m" X=3221 Y=-8258.5
SetBusXY Bus="bus_858m" X=3221 Y=-7530
SetBusXY Bus="DLoad_840" X=2255 Y=-10889.5
SetBusXY Bus="bus_846" X=101 Y=-10510.5
SetBusXY Bus="SLoad_848" X=101 Y=-11633.5
SetBusXY Bus="bus_822m" X=3084 Y=-4986.5
SetBusXY Bus="DLoad_844" X=1303 Y=-9752.5
SetBusXY Bus="bus_838" X=1351 Y=-11268.5
SetBusXY Bus="SLoad_860" X=2531 Y=-9752.5
SetBusXY Bus="bus_832" X=3446 Y=-7158.5
SetBusXY Bus="DLoad_864m" X=3359 Y=-8615.5
SetBusXY Bus="bus_824" X=4548 Y=-4228.5
SetBusXY Bus="DLoad_836" X=2255 Y=-10131.5
SetBusXY Bus="bus_860" X=2255 Y=-9373.5
SetBusXY Bus="bus_830m" X=4410 Y=-5365.5
SetBusXY Bus="bus_862" X=1351 Y=-10510.5
SetBusXY Bus="bus_816" X=3978.5 Y=-3536.5
SetBusXY Bus="DLoad_864" X=3083 Y=-8994.5
SetBusXY Bus="DLoad_826" X=5011 Y=-5365.5
SetBusXY Bus="SLoad_844" X=653 Y=-10131.5
SetBusXY Bus="DLoad_826m" X=4582 Y=-4986.5
SetBusXY Bus="DLoad_860" X=2807 Y=-9373.5
SetBusXY Bus="DLoad_856" X=4085 Y=-7158.5
SetBusXY Bus="DLoad_848" X=714 Y=-11268.5
SetBusXY Bus="DLoad_830m" X=4735 Y=-5744.5
SetBusXY Bus="bus_836m" X=2117 Y=-9752.5
SetBusXY Bus="bus_834" X=1040 Y=-8615.5
SetBusXY Bus="bus_856m" X=4223 Y=-6436.5
SetBusXY Bus="bus_800" X=3298 Y=-724.5
SetBusXY Bus="DLoad_830" X=4361 Y=-5744.5
SetBusXY Bus="DL_858m" X=3359 Y=-7901.5
SetBusXY Bus="bus_844m" X=702 Y=-9373.5
SetBusXY Bus="DLoad_824" X=5287 Y=-4228.5
SetBusXY Bus="bus_842" X=101 Y=-8994.5
SetBusXY Bus="bus_850" X=2946 Y=-3179.5
SetBusXY Bus="DLoad_834" X=2255 Y=-8615.5
SetBusXY Bus="DLoad_838" X=1351 Y=-11633.5
SetBusXY Bus="bus_828" X=4085 Y=-4986.5
SetBusXY Bus="bus_836" X=1665 Y=-10131.5
SetBusXY Bus="bus_806" X=3298 Y=-1751.5
SetBusXY Bus="cap_848" X=438 Y=-11633.5
SetBusXY Bus="DLoad_806m" X=3574 Y=-1751.5
SetBusXY Bus="bus_830" X=4085 Y=-5744.5
SetBusXY Bus="bus_820m" X=3084 Y=-4228.5
SetBusXY Bus="bus_810" X=3298 Y=-2800.5
SetBusXY Bus="bus_838m" X=1489 Y=-10889.5
SetBusXY Bus="bus_812" X=2946 Y=-2443.5
SetBusXY Bus="bus_848" X=269.5 Y=-11268.5
SetBusXY Bus="bus_826" X=5011 Y=-4986.5
SetBusXY Bus="DLoad_828" X=3672 Y=-4986.5
SetBusXY Bus="bus_844" X=564 Y=-9752.5

// Export results
//Export Summary (summary.csv)
//Export Voltages (voltages.csv)
//Export Currents (currents.csv)
//Export Overloads (overloads.csv)
//Export Powers kVA (powers.csv)
