New Linecode.2P_OH_Code0 units=km nphases=2 Rmatrix=(0.0 0.0 0.0 | 0.0 0.8639029832076629 0.16580099918528238 | 0.0 0.16580099918528235 0.8596152635628441 ) Xmatrix=(0.0 0.0 0.0 | 0.0 0.7725620499598873 0.31093462934683463 | 0.0 0.3109346293468345 0.7797354454471624 )

New Linecode.3P_OH_Code1 units=km nphases=3 Rmatrix=(0.24301930173642933 0.12386717279387553 0.12546680715032718 | 0.1238671727938755 0.2359145248035264 0.12192487578943022 | 0.12546680715032718 0.12192487578943023 0.23899505925375295 ) Xmatrix=(0.5453722842710682 0.3157983289652316 0.26659016667764335 | 0.3157983289652315 0.5672299347952778 0.24418183175760863 | 0.26659016667764335 0.24418183175760863 0.5577175171097379 )

New Linecode.2P_OH_Code2 units=km nphases=2 Rmatrix=(0.8596152635628441 0.0 0.16580099918528235 | 0.0 0.0 0.0 | 0.16580099918528235 0.0 0.8639029832076628 ) Xmatrix=(0.7797354454471626 0.0 0.3109346293468345 | 0.0 0.0 0.0 | 0.31093462934683463 0.0 0.7725620499598873 )

New Linecode.1P_OH_Code3 units=km nphases=1 Rmatrix=(0.0 0.0 0.0 | 0.0 0.0 0.0 | 0.0 0.0 0.8639029832076629 ) Xmatrix=(0.0 0.0 0.0 | 0.0 0.0 0.0 | 0.0 0.0 0.7725620499598873 )

New Linecode.1P_UG_Code4 units=km nphases=1 Rmatrix=(0.8179853613770587 0.0 0.0 | 0.0 0.0 0.0 | 0.0 0.0 0.0 ) Xmatrix=(0.600181126796194 0.0 0.0 | 0.0 0.0 0.0 | 0.0 0.0 0.0 )

New Linecode.3P_UG_Code5 units=km nphases=3 Rmatrix=(0.313980638025526 0.05921781599910522 0.05921781599910522 | 0.05921781599910522 0.313980638025526 0.05921781599910522 | 0.05921781599910522 0.05921781599910522 0.313980638025526 ) Xmatrix=(0.9049876131212921 0.6504769490816172 0.5982145285782177 | 0.6504769490816172 0.9049876131212921 0.6504769490816172 | 0.5982145285782177 0.6504769490816172 0.9049876131212921 )

New Linecode.3P_OH_Code6 units=km nphases=3 Rmatrix=(0.49535877008991586 0.12546680715032718 0.12386717279387553 | 0.12546680715032718 0.4913345276072395 0.12192487578943023 | 0.12386717279387553 0.12192487578943023 0.4882539931570129 ) Xmatrix=(0.6469214053608999 0.2665901666776432 0.3157983289652315 | 0.2665901666776432 0.6592666381995697 0.24418183175760858 | 0.3157983289652315 0.24418183175760858 0.6687790558851097 )

New Linecode.3P_OH_Code7 units=km nphases=3 Rmatrix=(1e-05 0.0 0.0 | 0.0 1e-05 0.0 | 0.0 0.0 1e-05 ) Xmatrix=(1e-05 0.0 0.0 | 0.0 1e-05 0.0 | 0.0 0.0 1e-05 )

